@<TRIPOS>MOLECULE
MOL
  179   176     1     0     0
SMALL
resp


@<TRIPOS>ATOM
      1 C1          2.1260    3.6640    5.5800 c3        1 MOL     -0.316027
      2 C2          1.6130    3.4030    4.1450 c         1 MOL      0.789882
      3 O1          2.3580    3.5020    3.1610 o         1 MOL     -0.679416
      4 H1          1.5810    4.5020    6.0130 hc        1 MOL      0.073380
      5 H2          1.9690    2.7750    6.1890 hc        1 MOL      0.073380
      6 H3          3.1900    3.9000    5.5480 hc        1 MOL      0.073380
      7 N1          0.3120    3.0690    4.0860 n         1 MOL     -0.575505
      8 C3         -0.3050    2.7090    2.7430 c3        1 MOL      0.101796
      9 C4         -0.3580    3.9610    1.8810 c         1 MOL      0.461921
     10 O2         -0.9500    4.9740    2.3380 o         1 MOL     -0.562819
     11 C5         -1.6870    2.1210    3.0460 c3        1 MOL     -0.314467
     12 C6         -2.3110    1.6580    1.7770 c         1 MOL      0.994084
     13 O3         -3.5130    1.3110    1.8210 o         1 MOL     -0.850772
     14 O4         -1.5950    1.6600    0.7400 o         1 MOL     -0.850772
     15 H4         -0.2310    3.1530    4.9330 hn        1 MOL      0.320533
     16 H5          0.3730    1.9670    2.3170 h1        1 MOL      0.001744
     17 H6         -2.3850    2.8730    3.4080 hc        1 MOL      0.094197
     18 H7         -1.4450    1.2200    3.6100 hc        1 MOL      0.094197
     19 N2          0.4070    4.0940    0.8090 n         1 MOL     -0.143587
     20 C7          0.5890    5.3860    0.1100 c3        1 MOL     -0.000884
     21 C8         -0.6970    5.9480   -0.5890 c         1 MOL      0.545530
     22 O5         -0.8570    7.1300   -0.6800 o         1 MOL     -0.546705
     23 C9          1.8310    5.3480   -0.7260 c3        1 MOL     -0.087344
     24 C10         3.1260    5.2000    0.1440 c3        1 MOL     -0.224705
     25 C11         4.3820    5.5570   -0.6290 c3        1 MOL     -0.007761
     26 C12         5.5810    5.6190    0.2660 c3        1 MOL      0.172820
     27 N3          6.7010    6.3310   -0.3620 n4        1 MOL     -0.448082
     28 H8          0.7350    3.2340    0.3850 hn        1 MOL      0.235667
     29 H9          0.8250    6.1770    0.8270 h1        1 MOL      0.049607
     30 H10         1.8660    6.3200   -1.2220 hc        1 MOL      0.053291
     31 H11         1.6710    4.6280   -1.5320 hc        1 MOL      0.053291
     32 H12         3.3480    4.1730    0.4240 hc        1 MOL      0.121056
     33 H13         3.1960    5.8250    1.0440 hc        1 MOL      0.121056
     34 H14         4.3360    6.5250   -1.1070 hc        1 MOL      0.022079
     35 H15         4.5700    4.9830   -1.5340 hc        1 MOL      0.022079
     36 H16         5.8580    4.6090    0.5360 hx        1 MOL      0.049165
     37 H17         5.3550    6.1380    1.1990 hx        1 MOL      0.049165
     38 H18         7.2980    5.6520   -0.8060 hn        1 MOL      0.343731
     39 H19         6.4350    7.1500   -0.8940 hn        1 MOL      0.343731
     40 H20         7.2960    6.7230    0.3430 hn        1 MOL      0.343731
     41 N4         -1.5620    4.9840   -0.9870 n         1 MOL     -0.377346
     42 C13        -2.7730    5.3110   -1.7420 c3        1 MOL      0.014526
     43 C14        -4.1260    4.7710   -1.1910 c         1 MOL      0.407409
     44 O6         -5.2040    4.8910   -1.7780 o         1 MOL     -0.504322
     45 C15        -2.6590    4.8340   -3.1170 c3        1 MOL     -0.119877
     46 C16        -2.5010    3.3220   -3.3090 c         1 MOL      0.786236
     47 O7         -2.5130    2.9240   -4.4540 o         1 MOL     -0.714109
     48 O8         -2.2760    2.5640   -2.3110 o         1 MOL     -0.714109
     49 H21        -1.2110    4.0390   -0.9770 hn        1 MOL      0.176151
     50 H22        -2.8440    6.4000   -1.7900 h1        1 MOL      0.113067
     51 H23        -1.8840    5.4260   -3.6010 hc        1 MOL      0.030368
     52 H24        -3.5840    5.1240   -3.6230 hc        1 MOL      0.030368
     53 N5         -4.0320    4.1770    0.0030 n         1 MOL     -0.178152
     54 C17        -5.2720    3.8810    0.7400 c3        1 MOL     -0.395680
     55 C18        -6.1400    2.7380    0.1320 c         1 MOL      0.592366
     56 O9         -7.2680    2.4600    0.5410 o         1 MOL     -0.580620
     57 H25        -3.1520    4.0850    0.4920 hn        1 MOL      0.229145
     58 H26        -5.8950    4.7730    0.8280 h1        1 MOL      0.172806
     59 H27        -4.9240    3.4430    1.6770 h1        1 MOL      0.172806
     60 N6         -5.6620    2.0150   -0.8830 n         1 MOL     -0.333802
     61 C19        -6.3620    0.7590   -1.3400 c3        1 MOL      0.068959
     62 C20        -6.4880   -0.4250   -0.4000 c         1 MOL      0.322311
     63 O10        -7.2640   -1.3130   -0.6720 o         1 MOL     -0.436613
     64 C21        -5.7790    0.2040   -2.7250 c3        1 MOL     -0.391936
     65 C22        -4.5140   -0.5710   -2.3760 c         1 MOL      0.706966
     66 N7         -4.4810   -1.8890   -2.5680 n         1 MOL     -0.728737
     67 O11        -3.6040   -0.0910   -1.6920 o         1 MOL     -0.720549
     68 H28        -4.7580    2.1990   -1.2970 hn        1 MOL      0.258075
     69 H29        -7.3980    1.0690   -1.4850 h1        1 MOL      0.128317
     70 H30        -5.3860    0.9590   -3.4070 hc        1 MOL      0.135027
     71 H31        -6.5230   -0.4640   -3.1510 hc        1 MOL      0.135027
     72 H32        -5.2790   -2.3310   -2.9940 hn        1 MOL      0.358152
     73 H33        -3.7150   -2.3630   -2.1230 hn        1 MOL      0.358152
     74 N8         -5.8430   -0.2630    0.8030 n         1 MOL     -0.146048
     75 C23        -5.9770   -1.2630    1.8820 c3        1 MOL     -0.494133
     76 C24        -5.0810   -2.4840    1.9920 c         1 MOL      0.597659
     77 O12        -5.2240   -3.3610    2.8350 o         1 MOL     -0.548975
     78 H34        -5.2210    0.4880    1.0830 hn        1 MOL      0.381684
     79 H35        -6.9550   -1.7260    1.8160 h1        1 MOL      0.182248
     80 H36        -5.8800   -0.7190    2.8240 h1        1 MOL      0.182248
     81 N9         -4.1270   -2.4360    1.0610 n         1 MOL     -0.185975
     82 C25        -3.0710   -3.3340    0.9830 c3        1 MOL      0.293912
     83 C26        -1.7870   -2.5580    0.8310 c         1 MOL      0.351813
     84 O13        -1.6930   -1.4910    0.1620 o         1 MOL     -0.496732
     85 C27        -3.4300   -4.3500   -0.1530 c3        1 MOL      0.029895
     86 C28        -4.7210   -5.0630    0.0760 ca        1 MOL      0.011847
     87 C29        -5.8810   -4.4900   -0.4670 ca        1 MOL     -0.188334
     88 C30        -4.8330   -6.3650    0.6490 ca        1 MOL     -0.188334
     89 C31        -7.1940   -5.0580   -0.1730 ca        1 MOL     -0.256010
     90 C32        -6.0850   -6.9870    0.8040 ca        1 MOL     -0.256010
     91 C33        -7.2890   -6.3130    0.4980 ca        1 MOL      0.369623
     92 O14        -8.5240   -6.8020    0.7380 oh        1 MOL     -0.464460
     93 H37        -4.0260   -1.5520    0.5870 hn        1 MOL      0.134287
     94 H38        -3.0340   -3.8500    1.9490 h1        1 MOL     -0.034139
     95 H39        -2.5800   -5.0390   -0.1900 hc        1 MOL     -0.021843
     96 H40        -3.4700   -3.8260   -1.1040 hc        1 MOL     -0.021843
     97 H41        -5.9550   -3.6000   -1.0820 ha        1 MOL      0.136276
     98 H42        -3.9380   -6.8920    0.9230 ha        1 MOL      0.136276
     99 H43        -7.9810   -4.4550   -0.6060 ha        1 MOL      0.141244
    100 H44        -6.2390   -7.9290    1.3060 ha        1 MOL      0.141244
    101 H45        -8.4320   -7.6430    1.2110 ho        1 MOL      0.349963
    102 N10        -0.7140   -3.1660    1.3880 n         1 MOL     -0.483983
    103 C34         0.7130   -2.7060    1.3590 c3        1 MOL      0.078503
    104 C35         1.6300   -3.6360    0.6460 c         1 MOL      0.483544
    105 O15         1.8500   -4.7680    1.0500 o         1 MOL     -0.533080
    106 C36         1.1580   -2.4470    2.8400 c3        1 MOL     -0.110239
    107 C37         0.6170   -1.2070    3.5790 c3        1 MOL      0.052489
    108 C38         2.7120   -2.2610    2.8870 c3        1 MOL     -0.025463
    109 C39         0.8940   -1.1740    5.0810 c3        1 MOL     -0.330227
    110 H46        -0.9340   -4.0400    1.8440 hn        1 MOL      0.320291
    111 H47         0.7940   -1.7580    0.8120 h1        1 MOL      0.026585
    112 H48         0.9690   -3.2990    3.4920 hc        1 MOL      0.082941
    113 H49        -0.4580   -1.0730    3.4140 hc        1 MOL      0.031553
    114 H50         0.8800   -0.2310    3.1640 hc        1 MOL      0.031553
    115 H51         2.9680   -1.3570    2.3290 hc        1 MOL      0.006201
    116 H52         3.1330   -2.1740    3.8950 hc        1 MOL      0.006201
    117 H53         3.3060   -3.0310    2.4050 hc        1 MOL      0.006201
    118 H54         0.2320   -0.5230    5.6400 hc        1 MOL      0.089998
    119 H55         0.9800   -2.1680    5.5010 hc        1 MOL      0.089998
    120 H56         1.8800   -0.7390    5.2510 hc        1 MOL      0.089998
    121 N11         2.2360   -3.1610   -0.4330 n         1 MOL     -0.166908
    122 C40         3.1300   -3.9380   -1.2950 c3        1 MOL     -0.150911
    123 C41         4.5110   -3.9360   -0.6700 c         1 MOL      0.369384
    124 O16         4.8800   -3.1970    0.2330 o         1 MOL     -0.318820
    125 C42         3.2020   -3.3800   -2.7360 c3        1 MOL      0.061911
    126 O17         3.4110   -1.9440   -2.7720 oh        1 MOL     -0.547172
    127 H57         2.1630   -2.1810   -0.6630 hn        1 MOL      0.144644
    128 H58         2.6590   -4.9150   -1.2730 h1        1 MOL      0.111371
    129 H59         2.2740   -3.6740   -3.2450 h1        1 MOL      0.062798
    130 H60         3.9840   -3.8370   -3.3350 h1        1 MOL      0.062798
    131 H61         2.5630   -1.5370   -2.6150 ho        1 MOL      0.381459
    132 N12         5.3590   -4.8180   -1.2100 n         1 MOL     -0.347448
    133 C43         6.7260   -4.9390   -0.7540 c3        1 MOL      0.216759
    134 C44         7.4560   -3.5760   -1.0320 c         1 MOL      0.314300
    135 O18         8.1550   -3.1640   -0.1150 o         1 MOL     -0.451885
    136 C45         7.4210   -5.9950   -1.5740 c3        1 MOL     -0.431498
    137 H62         5.0140   -5.5220   -1.8440 hn        1 MOL      0.247015
    138 H63         6.6330   -5.1870    0.2980 h1        1 MOL      0.081703
    139 H64         7.1880   -5.9520   -2.6320 hc        1 MOL      0.124147
    140 H65         8.5010   -5.9290   -1.5230 hc        1 MOL      0.124147
    141 H66         7.1880   -6.9380   -1.0830 hc        1 MOL      0.124147
    142 N13         7.1890   -2.8660   -2.2000 n         1 MOL     -0.273239
    143 C46         7.4730   -1.4610   -2.4570 c3        1 MOL      0.199365
    144 C47         7.1120   -0.4830   -1.3820 c         1 MOL      0.313009
    145 O19         7.9860    0.2530   -0.9720 o         1 MOL     -0.514780
    146 C48         6.9260   -1.0350   -3.7660 c3        1 MOL     -0.324896
    147 H67         6.9140   -3.4770   -2.9500 hn        1 MOL      0.221644
    148 H68         8.5530   -1.4140   -2.5500 h1        1 MOL      0.049084
    149 H69         5.8420   -0.9230   -3.8270 hc        1 MOL      0.090003
    150 H70         7.2040   -0.0330   -4.0780 hc        1 MOL      0.090003
    151 H71         7.4450   -1.6910   -4.4670 hc        1 MOL      0.090003
    152 N14         5.8840   -0.4250   -0.8420 n         1 MOL     -0.076521
    153 C49         5.4840    0.3790    0.3200 c3        1 MOL     -0.364731
    154 C50         6.0720   -0.1210    1.6440 c         1 MOL      0.516636
    155 O20         6.0520    0.6950    2.5660 o         1 MOL     -0.579736
    156 C51         3.9600    0.4110    0.3600 c3        1 MOL      0.058268
    157 C52         3.3450    1.1580   -0.8970 c3        1 MOL     -0.244323
    158 C53         1.8500    0.8630   -1.0590 c         1 MOL      0.814466
    159 O21         1.4320   -0.2910   -1.3230 o         1 MOL     -0.759911
    160 O22         1.0740    1.8390   -0.9830 o         1 MOL     -0.759911
    161 H72         5.1250   -1.0130   -1.1470 hn        1 MOL      0.183878
    162 H73         5.8290    1.4110    0.2120 h1        1 MOL      0.174429
    163 H74         3.6360    0.9820    1.2240 hc        1 MOL      0.082722
    164 H75         3.5080   -0.5810    0.3820 hc        1 MOL      0.082722
    165 H76         3.7770    0.8330   -1.8370 hc        1 MOL      0.057253
    166 H77         3.4020    2.2140   -0.6500 hc        1 MOL      0.057253
    167 N15         6.4620   -1.3650    1.8370 n         1 MOL     -0.041706
    168 C54         7.0720   -1.8390    3.0580 c3        1 MOL     -0.202928
    169 H78         7.8380   -2.5750    2.8190 h1        1 MOL      0.087498
    170 H79         7.5260   -1.0010    3.5870 h1        1 MOL      0.087498
    171 H80         6.3120   -2.2990    3.6900 h1        1 MOL      0.087498
    172 H81         6.3030   -2.0610    1.1190 hn        1 MOL      0.077479
    173 Ca1        -1.0780    0.4150   -1.4750 Ca        1 MOL      1.746484
    174 O23        -1.0000    0.5870   -4.1430 oh        1 MOL     -0.898088
    175 H82        -1.3760    1.4620   -4.2530 ho        1 MOL      0.428311
    176 H83        -1.5210    0.0260   -4.7130 ho        1 MOL      0.428311
    177 O24        -1.3790   -2.1230   -2.7940 oh        1 MOL     -0.898088
    178 H84        -1.1290   -2.0010   -3.7110 ho        1 MOL      0.428311
    179 H85        -1.0540   -3.0010   -2.5730 ho        1 MOL      0.428311
@<TRIPOS>BOND
     1    1    2 1   
     2    1    4 1   
     3    1    5 1   
     4    1    6 1   
     5    2    3 2   
     6    2    7 1   
     7    7    8 1   
     8    7   15 1   
     9    8    9 1   
    10    8   11 1   
    11    8   16 1   
    12    9   10 2   
    13    9   19 1   
    14   11   12 1   
    15   11   17 1   
    16   11   18 1   
    17   12   13 1   
    18   12   14 1   
    19   19   20 1   
    20   19   28 1   
    21   20   21 1   
    22   20   23 1   
    23   20   29 1   
    24   21   22 2   
    25   21   41 1   
    26   23   24 1   
    27   23   30 1   
    28   23   31 1   
    29   24   25 1   
    30   24   32 1   
    31   24   33 1   
    32   25   26 1   
    33   25   34 1   
    34   25   35 1   
    35   26   27 1   
    36   26   36 1   
    37   26   37 1   
    38   27   38 1   
    39   27   39 1   
    40   27   40 1   
    41   41   42 1   
    42   41   49 1   
    43   42   43 1   
    44   42   45 1   
    45   42   50 1   
    46   43   44 2   
    47   43   53 1   
    48   45   46 1   
    49   45   51 1   
    50   45   52 1   
    51   46   47 1   
    52   46   48 1   
    53   53   54 1   
    54   53   57 1   
    55   54   55 1   
    56   54   58 1   
    57   54   59 1   
    58   55   56 2   
    59   55   60 1   
    60   60   61 1   
    61   60   68 1   
    62   61   62 1   
    63   61   64 1   
    64   61   69 1   
    65   62   63 2   
    66   62   74 1   
    67   64   65 1   
    68   64   70 1   
    69   64   71 1   
    70   65   66 1   
    71   65   67 2   
    72   66   72 1   
    73   66   73 1   
    74   74   75 1   
    75   74   78 1   
    76   75   76 1   
    77   75   79 1   
    78   75   80 1   
    79   76   77 2   
    80   76   81 1   
    81   81   82 1   
    82   81   93 1   
    83   82   83 1   
    84   82   85 1   
    85   82   94 1   
    86   83   84 2   
    87   83  102 1   
    88   85   86 1   
    89   85   95 1   
    90   85   96 1   
    91   86   87 ar  
    92   86   88 ar  
    93   87   89 ar  
    94   87   97 1   
    95   88   90 ar  
    96   88   98 1   
    97   89   91 ar  
    98   89   99 1   
    99   90   91 ar  
   100   90  100 1   
   101   91   92 1   
   102   92  101 1   
   103  102  103 1   
   104  102  110 1   
   105  103  104 1   
   106  103  106 1   
   107  103  111 1   
   108  104  105 2   
   109  104  121 1   
   110  106  107 1   
   111  106  108 1   
   112  106  112 1   
   113  107  109 1   
   114  107  113 1   
   115  107  114 1   
   116  108  115 1   
   117  108  116 1   
   118  108  117 1   
   119  109  118 1   
   120  109  119 1   
   121  109  120 1   
   122  121  122 1   
   123  121  127 1   
   124  122  123 1   
   125  122  125 1   
   126  122  128 1   
   127  123  124 2   
   128  123  132 1   
   129  125  126 1   
   130  125  129 1   
   131  125  130 1   
   132  126  131 1   
   133  132  133 1   
   134  132  137 1   
   135  133  134 1   
   136  133  136 1   
   137  133  138 1   
   138  134  135 2   
   139  134  142 1   
   140  136  139 1   
   141  136  140 1   
   142  136  141 1   
   143  142  143 1   
   144  142  147 1   
   145  143  144 1   
   146  143  146 1   
   147  143  148 1   
   148  144  145 2   
   149  144  152 1   
   150  146  149 1   
   151  146  150 1   
   152  146  151 1   
   153  152  153 1   
   154  152  161 1   
   155  153  154 1   
   156  153  156 1   
   157  153  162 1   
   158  154  155 2   
   159  154  167 1   
   160  156  157 1   
   161  156  163 1   
   162  156  164 1   
   163  157  158 1   
   164  157  165 1   
   165  157  166 1   
   166  158  159 1   
   167  158  160 1   
   168  167  168 1   
   169  167  172 1   
   170  168  169 1   
   171  168  170 1   
   172  168  171 1   
   173  174  175 1   
   174  174  176 1   
   175  177  178 1   
   176  177  179 1   
@<TRIPOS>SUBSTRUCTURE
     1 MOL         1 TEMP              0 ****  ****    0 ROOT
