@<TRIPOS>MOLECULE
MOL
  179   176     1     0     0
SMALL
resp


@<TRIPOS>ATOM
      1 C1          1.9800    3.9540    4.2360 c3        1 MOL     -0.320928
      2 C2          1.1240    3.5080    2.9740 c         1 MOL      0.627322
      3 O1          1.7140    3.3910    1.9160 o         1 MOL     -0.564664
      4 H1          2.2300    3.0770    4.8340 hc        1 MOL      0.077034
      5 H2          2.8970    4.4370    3.9010 hc        1 MOL      0.077034
      6 H3          1.4010    4.6520    4.8410 hc        1 MOL      0.077034
      7 N1         -0.1620    3.3430    3.1160 n         1 MOL     -0.668756
      8 C3         -0.9790    2.8160    1.9930 c3        1 MOL      0.092564
      9 C4         -1.6880    3.9670    1.2900 c         1 MOL      0.631068
     10 O2         -2.8620    4.1800    1.5230 o         1 MOL     -0.509207
     11 C5         -2.0200    1.8210    2.6170 c3        1 MOL     -0.055612
     12 C6         -2.8470    1.1080    1.6050 c         1 MOL      0.875317
     13 O3         -3.9790    0.6690    1.8190 o         1 MOL     -0.863965
     14 O4         -2.3160    0.8940    0.5090 o         1 MOL     -0.863965
     15 H4         -0.5830    3.4080    4.0310 hn        1 MOL      0.368779
     16 H5         -0.4930    2.2730    1.1720 h1        1 MOL      0.035096
     17 H6         -2.6310    2.4420    3.2670 hc        1 MOL      0.001603
     18 H7         -1.4630    1.0720    3.1930 hc        1 MOL      0.001603
     19 N2         -0.9500    4.6650    0.3780 n         1 MOL     -0.495126
     20 C7         -1.3860    5.8440   -0.3240 c3        1 MOL      0.053848
     21 C8         -2.6730    5.6600   -1.3250 c         1 MOL      0.450660
     22 O5         -3.5730    6.4640   -1.3460 o         1 MOL     -0.524318
     23 C9         -0.2280    6.3090   -1.1910 c3        1 MOL     -0.320438
     24 C10         1.0590    6.7390   -0.4430 c3        1 MOL      0.208137
     25 C11         0.7880    7.9740    0.4540 c3        1 MOL     -0.068475
     26 C12         2.0620    8.6930    0.9050 c3        1 MOL     -0.110884
     27 N3          3.0080    7.8300    1.7150 n4        1 MOL     -0.368046
     28 H8         -0.0730    4.2780    0.0600 hn        1 MOL      0.381392
     29 H9         -1.6440    6.6440    0.3680 h1        1 MOL      0.061299
     30 H10        -0.4980    7.0250   -1.9570 hc        1 MOL      0.107647
     31 H11         0.1030    5.3970   -1.6960 hc        1 MOL      0.107647
     32 H12         1.8190    7.0710   -1.1510 hc        1 MOL     -0.028672
     33 H13         1.4630    5.8890    0.1180 hc        1 MOL     -0.028672
     34 H14         0.1810    7.6210    1.2950 hc        1 MOL      0.061456
     35 H15         0.2110    8.6880   -0.1320 hc        1 MOL      0.061456
     36 H16         1.7970    9.5520    1.5110 hx        1 MOL      0.131821
     37 H17         2.5250    9.1500    0.0310 hx        1 MOL      0.131821
     38 H18         3.4080    7.0650    1.1850 hn        1 MOL      0.335683
     39 H19         3.7930    8.2870    2.1470 hn        1 MOL      0.335683
     40 H20         2.5260    7.5160    2.5450 hn        1 MOL      0.335683
     41 N4         -2.7630    4.5010   -1.9830 n         1 MOL     -0.269602
     42 C13        -3.9210    4.0890   -2.7920 c3        1 MOL     -0.047033
     43 C14        -5.1120    3.5280   -2.0020 c         1 MOL      0.410756
     44 O6         -6.1780    3.2310   -2.6330 o         1 MOL     -0.547358
     45 C15        -3.3730    3.0100   -3.7560 c3        1 MOL     -0.229580
     46 C16        -2.6480    1.8990   -3.0070 c         1 MOL      0.772343
     47 O7         -1.5050    2.0280   -2.5400 o         1 MOL     -0.755011
     48 O8         -3.1070    0.7880   -3.0070 o         1 MOL     -0.755011
     49 H21        -2.0160    3.8290   -1.9940 hn        1 MOL      0.199099
     50 H22        -4.2600    4.9390   -3.3870 h1        1 MOL      0.113719
     51 H23        -2.7440    3.4670   -4.5150 hc        1 MOL      0.079901
     52 H24        -4.1820    2.5490   -4.3130 hc        1 MOL      0.079901
     53 N5         -4.9280    3.1230   -0.7360 n         1 MOL     -0.030111
     54 C17        -5.9820    2.6680    0.1870 c3        1 MOL     -0.457096
     55 C18        -6.4580    1.2460    0.1660 c         1 MOL      0.676321
     56 O9         -7.3030    0.9990    1.0060 o         1 MOL     -0.584199
     57 H25        -4.0860    3.2790   -0.2010 hn        1 MOL      0.142440
     58 H26        -6.8690    3.2570   -0.0710 h1        1 MOL      0.180611
     59 H27        -5.5750    2.9700    1.1520 h1        1 MOL      0.180611
     60 N6         -5.9720    0.3720   -0.7390 n         1 MOL     -0.336755
     61 C19        -6.5010   -0.9520   -1.0160 c3        1 MOL     -0.002659
     62 C20        -6.6050   -1.8230    0.2550 c         1 MOL      0.333651
     63 O10        -7.4320   -2.7530    0.1810 o         1 MOL     -0.551287
     64 C21        -5.7080   -1.5470   -2.1180 c3        1 MOL     -0.145005
     65 C22        -4.3040   -2.0340   -1.7120 c         1 MOL      0.593630
     66 N7         -3.7450   -2.8030   -2.6130 n         1 MOL     -0.707924
     67 O11        -3.6590   -1.6180   -0.7640 o         1 MOL     -0.604361
     68 H28        -5.3430    0.7220   -1.4490 hn        1 MOL      0.217076
     69 H29        -7.5200   -0.8100   -1.3690 h1        1 MOL      0.092861
     70 H30        -5.5750   -0.8620   -2.9670 hc        1 MOL      0.074390
     71 H31        -6.1600   -2.3940   -2.6410 hc        1 MOL      0.074390
     72 H32        -4.3130   -3.1690   -3.3650 hn        1 MOL      0.330862
     73 H33        -2.8220   -3.1590   -2.4250 hn        1 MOL      0.330862
     74 N8         -5.8600   -1.5250    1.3290 n         1 MOL     -0.001852
     75 C23        -5.9620   -2.1350    2.6540 c3        1 MOL     -0.326204
     76 C24        -4.6150   -2.6370    3.1810 c         1 MOL      0.613971
     77 O12        -4.5250   -3.2200    4.2750 o         1 MOL     -0.590249
     78 H34        -5.3250   -0.6700    1.3060 hn        1 MOL      0.383041
     79 H35        -6.6910   -2.9380    2.7870 h1        1 MOL      0.133792
     80 H36        -6.1790   -1.3150    3.3440 h1        1 MOL      0.133792
     81 N9         -3.5370   -2.5670    2.3690 n         1 MOL     -0.308541
     82 C25        -2.2900   -3.3080    2.6150 c3        1 MOL      0.036892
     83 C26        -1.1390   -2.5420    1.9450 c         1 MOL      0.514064
     84 O13        -1.3520   -1.8030    0.9800 o         1 MOL     -0.566848
     85 C27        -2.4740   -4.8170    2.2740 c3        1 MOL      0.024923
     86 C28        -3.1560   -5.2100    0.9230 ca        1 MOL     -0.061500
     87 C29        -4.5600   -5.0260    0.8250 ca        1 MOL     -0.052532
     88 C30        -2.4120   -5.8190   -0.1160 ca        1 MOL     -0.052532
     89 C31        -5.1580   -5.5030   -0.3390 ca        1 MOL     -0.300020
     90 C32        -3.0490   -6.2590   -1.2770 ca        1 MOL     -0.300020
     91 C33        -4.4360   -6.1610   -1.3740 ca        1 MOL      0.367308
     92 O14        -5.0260   -6.5390   -2.5770 oh        1 MOL     -0.546726
     93 H37        -3.4920   -1.9720    1.5570 hn        1 MOL      0.255070
     94 H38        -2.0640   -3.2070    3.6740 h1        1 MOL      0.030254
     95 H39        -2.9330   -5.3370    3.1110 hc        1 MOL      0.027056
     96 H40        -1.5080   -5.3200    2.3300 hc        1 MOL      0.027056
     97 H41        -5.0680   -4.5470    1.6500 ha        1 MOL      0.092614
     98 H42        -1.3600   -6.0080    0.0490 ha        1 MOL      0.092614
     99 H43        -6.2300   -5.4080   -0.3720 ha        1 MOL      0.150209
    100 H44        -2.4590   -6.6490   -2.0970 ha        1 MOL      0.150209
    101 H45        -5.9620   -6.3150   -2.5410 ho        1 MOL      0.403059
    102 N10         0.0710   -3.0010    2.3050 n         1 MOL     -0.424075
    103 C34         1.3220   -2.4370    1.6730 c3        1 MOL      0.065071
    104 C35         2.3510   -3.4410    1.2160 c         1 MOL      0.346673
    105 O15         2.5250   -4.4770    1.8640 o         1 MOL     -0.538513
    106 C36         2.0880   -1.5230    2.6660 c3        1 MOL      0.037915
    107 C37         2.7080   -2.1510    3.8580 c3        1 MOL     -0.057688
    108 C38         1.1500   -0.3640    3.0100 c3        1 MOL     -0.125737
    109 C39         3.3380   -1.2710    4.9540 c3        1 MOL     -0.242068
    110 H46         0.2100   -3.7260    2.9960 hn        1 MOL      0.297602
    111 H47         1.0190   -1.8390    0.8220 h1        1 MOL      0.005978
    112 H48         2.9810   -1.1220    2.1840 hc        1 MOL      0.000221
    113 H49         3.4200   -2.8930    3.4910 hc        1 MOL      0.040183
    114 H50         1.9000   -2.5710    4.4510 hc        1 MOL      0.040183
    115 H51         1.7490    0.5120    3.2670 hc        1 MOL      0.067741
    116 H52         0.3990   -0.1860    2.2430 hc        1 MOL      0.067741
    117 H53         0.6170   -0.6070    3.9340 hc        1 MOL      0.067741
    118 H54         4.1580   -0.6300    4.6240 hc        1 MOL      0.068313
    119 H55         2.5730   -0.6860    5.4540 hc        1 MOL      0.068313
    120 H56         3.9390   -1.9160    5.6020 hc        1 MOL      0.068313
    121 N11         3.2060   -3.1210    0.2350 n         1 MOL     -0.187197
    122 C40         4.3630   -3.9510   -0.2380 c3        1 MOL      0.006911
    123 C41         5.6970   -3.2280   -0.0790 c         1 MOL      0.479325
    124 O16         5.8110   -2.0660    0.3970 o         1 MOL     -0.416398
    125 C42         3.9870   -4.2230   -1.7330 c3        1 MOL     -0.147513
    126 O17         4.0650   -3.0970   -2.5970 oh        1 MOL     -0.502316
    127 H57         2.9730   -2.3180   -0.3320 hn        1 MOL      0.281007
    128 H58         4.3810   -4.9370    0.2340 h1        1 MOL      0.089464
    129 H59         2.9770   -4.6090   -1.8230 h1        1 MOL      0.114343
    130 H60         4.6950   -4.9720   -2.0790 h1        1 MOL      0.114343
    131 H61         4.9670   -3.0320   -2.9190 ho        1 MOL      0.373860
    132 N12         6.7920   -3.8390   -0.4930 n         1 MOL     -0.468138
    133 C43         8.0970   -3.2710   -0.3110 c3        1 MOL      0.148941
    134 C44         8.2960   -1.8290   -0.8680 c         1 MOL      0.474855
    135 O18         8.8010   -0.9310   -0.1240 o         1 MOL     -0.509655
    136 C45         9.1780   -4.2530   -0.8540 c3        1 MOL     -0.145803
    137 H62         6.7480   -4.7490   -0.9120 hn        1 MOL      0.301983
    138 H63         8.3520   -3.2280    0.7510 h1        1 MOL      0.066315
    139 H64         9.0200   -5.3010   -0.5920 hc        1 MOL      0.042641
    140 H65         9.1540   -4.1250   -1.9470 hc        1 MOL      0.042641
    141 H66        10.1550   -3.9050   -0.5340 hc        1 MOL      0.042641
    142 N13         7.8390   -1.4800   -2.1360 n         1 MOL     -0.434859
    143 C46         7.9660   -0.0720   -2.6960 c3        1 MOL      0.109463
    144 C47         7.1860    0.9820   -1.8840 c         1 MOL      0.471343
    145 O19         7.6880    2.0660   -1.6150 o         1 MOL     -0.524958
    146 C48         7.5460   -0.1030   -4.1080 c3        1 MOL     -0.298421
    147 H67         7.3430   -2.1190   -2.7400 hn        1 MOL      0.270354
    148 H68         9.0190    0.2070   -2.5810 h1        1 MOL      0.093292
    149 H69         6.4740   -0.1250   -4.3210 hc        1 MOL      0.083541
    150 H70         8.0030    0.7830   -4.5330 hc        1 MOL      0.083541
    151 H71         7.8910   -1.0310   -4.5690 hc        1 MOL      0.083541
    152 N14         6.0170    0.6650   -1.3590 n         1 MOL     -0.306380
    153 C49         5.1270    1.5250   -0.6070 c3        1 MOL     -0.107556
    154 C50         5.7540    1.9480    0.7090 c         1 MOL      0.461618
    155 O20         5.6650    3.0890    1.1150 o         1 MOL     -0.552535
    156 C51         3.8730    0.6640   -0.3300 c3        1 MOL      0.045738
    157 C52         3.1150    0.3360   -1.6270 c3        1 MOL      0.048805
    158 C53         1.6130    0.0340   -1.4030 c         1 MOL      0.742650
    159 O21         1.1300   -1.0110   -1.8900 o         1 MOL     -0.740220
    160 O22         0.8500    0.7940   -0.7930 o         1 MOL     -0.740220
    161 H72         5.7400   -0.2940   -1.4750 hn        1 MOL      0.220048
    162 H73         4.9030    2.3990   -1.2300 h1        1 MOL      0.127218
    163 H74         3.2590    1.1910    0.3960 hc        1 MOL      0.000555
    164 H75         4.0340   -0.3390    0.0460 hc        1 MOL      0.000555
    165 H76         3.5460   -0.4500   -2.2460 hc        1 MOL     -0.057728
    166 H77         3.1280    1.2730   -2.1890 hc        1 MOL     -0.057728
    167 N15         6.4540    1.0100    1.3720 n         1 MOL     -0.023595
    168 C54         7.1010    1.0930    2.6860 c3        1 MOL     -0.360474
    169 H78         7.2420    0.0880    3.0850 h1        1 MOL      0.128214
    170 H79         8.0700    1.5820    2.5850 h1        1 MOL      0.128214
    171 H80         6.4720    1.6690    3.3660 h1        1 MOL      0.128214
    172 H81         6.3490    0.0570    1.0290 hn        1 MOL      0.112106
    173 Ca1        -1.4230   -0.4070   -1.5190 Ca        1 MOL      1.792978
    174 O23        -1.1380   -0.7820   -4.1480 oh        1 MOL     -0.793664
    175 H82        -1.9370   -1.0620   -4.5860 ho        1 MOL      0.394392
    176 H83        -0.7800   -0.0950   -4.7100 ho        1 MOL      0.394392
    177 O24        -0.9010   -3.1920   -1.6930 oh        1 MOL     -0.793664
    178 H84        -0.0880   -3.6650   -1.8500 ho        1 MOL      0.394392
    179 H85        -1.3840   -3.7290   -1.0670 ho        1 MOL      0.394392
@<TRIPOS>BOND
     1    1    2 1   
     2    1    4 1   
     3    1    5 1   
     4    1    6 1   
     5    2    3 2   
     6    2    7 1   
     7    7    8 1   
     8    7   15 1   
     9    8    9 1   
    10    8   11 1   
    11    8   16 1   
    12    9   10 2   
    13    9   19 1   
    14   11   12 1   
    15   11   17 1   
    16   11   18 1   
    17   12   13 1   
    18   12   14 1   
    19   19   20 1   
    20   19   28 1   
    21   20   21 1   
    22   20   23 1   
    23   20   29 1   
    24   21   22 2   
    25   21   41 1   
    26   23   24 1   
    27   23   30 1   
    28   23   31 1   
    29   24   25 1   
    30   24   32 1   
    31   24   33 1   
    32   25   26 1   
    33   25   34 1   
    34   25   35 1   
    35   26   27 1   
    36   26   36 1   
    37   26   37 1   
    38   27   38 1   
    39   27   39 1   
    40   27   40 1   
    41   41   42 1   
    42   41   49 1   
    43   42   43 1   
    44   42   45 1   
    45   42   50 1   
    46   43   44 2   
    47   43   53 1   
    48   45   46 1   
    49   45   51 1   
    50   45   52 1   
    51   46   47 1   
    52   46   48 1   
    53   53   54 1   
    54   53   57 1   
    55   54   55 1   
    56   54   58 1   
    57   54   59 1   
    58   55   56 2   
    59   55   60 1   
    60   60   61 1   
    61   60   68 1   
    62   61   62 1   
    63   61   64 1   
    64   61   69 1   
    65   62   63 2   
    66   62   74 1   
    67   64   65 1   
    68   64   70 1   
    69   64   71 1   
    70   65   66 1   
    71   65   67 2   
    72   66   72 1   
    73   66   73 1   
    74   74   75 1   
    75   74   78 1   
    76   75   76 1   
    77   75   79 1   
    78   75   80 1   
    79   76   77 2   
    80   76   81 1   
    81   81   82 1   
    82   81   93 1   
    83   82   83 1   
    84   82   85 1   
    85   82   94 1   
    86   83   84 2   
    87   83  102 1   
    88   85   86 1   
    89   85   95 1   
    90   85   96 1   
    91   86   87 ar  
    92   86   88 ar  
    93   87   89 ar  
    94   87   97 1   
    95   88   90 ar  
    96   88   98 1   
    97   89   91 ar  
    98   89   99 1   
    99   90   91 ar  
   100   90  100 1   
   101   91   92 1   
   102   92  101 1   
   103  102  103 1   
   104  102  110 1   
   105  103  104 1   
   106  103  106 1   
   107  103  111 1   
   108  104  105 2   
   109  104  121 1   
   110  106  107 1   
   111  106  108 1   
   112  106  112 1   
   113  107  109 1   
   114  107  113 1   
   115  107  114 1   
   116  108  115 1   
   117  108  116 1   
   118  108  117 1   
   119  109  118 1   
   120  109  119 1   
   121  109  120 1   
   122  121  122 1   
   123  121  127 1   
   124  122  123 1   
   125  122  125 1   
   126  122  128 1   
   127  123  124 2   
   128  123  132 1   
   129  125  126 1   
   130  125  129 1   
   131  125  130 1   
   132  126  131 1   
   133  132  133 1   
   134  132  137 1   
   135  133  134 1   
   136  133  136 1   
   137  133  138 1   
   138  134  135 2   
   139  134  142 1   
   140  136  139 1   
   141  136  140 1   
   142  136  141 1   
   143  142  143 1   
   144  142  147 1   
   145  143  144 1   
   146  143  146 1   
   147  143  148 1   
   148  144  145 2   
   149  144  152 1   
   150  146  149 1   
   151  146  150 1   
   152  146  151 1   
   153  152  153 1   
   154  152  161 1   
   155  153  154 1   
   156  153  156 1   
   157  153  162 1   
   158  154  155 2   
   159  154  167 1   
   160  156  157 1   
   161  156  163 1   
   162  156  164 1   
   163  157  158 1   
   164  157  165 1   
   165  157  166 1   
   166  158  159 1   
   167  158  160 1   
   168  167  168 1   
   169  167  172 1   
   170  168  169 1   
   171  168  170 1   
   172  168  171 1   
   173  174  175 1   
   174  174  176 1   
   175  177  178 1   
   176  177  179 1   
@<TRIPOS>SUBSTRUCTURE
     1 MOL         1 TEMP              0 ****  ****    0 ROOT
