@<TRIPOS>MOLECULE
MOL
  179   176     1     0     0
SMALL
resp


@<TRIPOS>ATOM
      1 C1          1.5820    2.3020    6.2850 c3        1 MOL     -0.301694
      2 C2          1.3300    2.0750    4.7720 c         1 MOL      0.790420
      3 O1          2.2020    2.1060    3.9320 o         1 MOL     -0.626680
      4 H1          0.6560    2.1360    6.8360 hc        1 MOL      0.074747
      5 H2          2.3440    1.6050    6.6350 hc        1 MOL      0.074747
      6 H3          1.9230    3.3250    6.4470 hc        1 MOL      0.074747
      7 N1          0.0850    1.9100    4.3940 n         1 MOL     -0.626728
      8 C3         -0.4290    1.9380    3.0090 c3        1 MOL      0.078013
      9 C4         -0.1960    3.3620    2.4850 c         1 MOL      0.557394
     10 O2         -0.6680    4.3780    3.0520 o         1 MOL     -0.583795
     11 C5         -1.9200    1.5210    2.9860 c3        1 MOL     -0.044382
     12 C6         -2.6850    1.5600    1.6270 c         1 MOL      0.624691
     13 O3         -3.8650    1.1710    1.6710 o         1 MOL     -0.676294
     14 O4         -2.1040    1.7590    0.5540 o         1 MOL     -0.676294
     15 H4         -0.5980    2.0340    5.1220 hn        1 MOL      0.317104
     16 H5          0.0610    1.1800    2.3960 h1        1 MOL      0.066962
     17 H6         -2.4860    2.0980    3.7160 hc        1 MOL      0.013406
     18 H7         -1.9280    0.4740    3.2740 hc        1 MOL      0.013406
     19 N2          0.6100    3.4770    1.4160 n         1 MOL     -0.257375
     20 C7          1.0400    4.7130    0.8280 c3        1 MOL      0.025081
     21 C8          0.0580    5.3730   -0.1900 c         1 MOL      0.520394
     22 O5          0.4110    6.3050   -0.9290 o         1 MOL     -0.612979
     23 C9          2.5040    4.5940    0.3400 c3        1 MOL      0.019936
     24 C10         3.2880    5.8550    0.4430 c3        1 MOL     -0.194708
     25 C11         4.3800    5.9670   -0.5880 c3        1 MOL     -0.163472
     26 C12         3.8320    6.0090   -2.0420 c3        1 MOL      0.028541
     27 N3          2.7650    7.0150   -2.1690 n4        1 MOL     -0.457062
     28 H8          0.8670    2.6190    0.9590 hn        1 MOL      0.207487
     29 H9          1.0790    5.4430    1.6400 h1        1 MOL      0.044180
     30 H10         2.3550    4.3450   -0.7090 hc        1 MOL      0.101849
     31 H11         2.9360    3.7970    0.9400 hc        1 MOL      0.101849
     32 H12         3.7050    5.7470    1.4470 hc        1 MOL      0.086691
     33 H13         2.6480    6.7260    0.5710 hc        1 MOL      0.086691
     34 H14         5.1310    5.1810   -0.5490 hc        1 MOL      0.091651
     35 H15         4.9040    6.9070   -0.3620 hc        1 MOL      0.091651
     36 H16         3.4780    5.0250   -2.3440 hx        1 MOL      0.087945
     37 H17         4.6740    6.0870   -2.7430 hx        1 MOL      0.087945
     38 H18         3.0190    7.9680   -2.0180 hn        1 MOL      0.340917
     39 H19         2.3590    7.0060   -3.0950 hn        1 MOL      0.340917
     40 H20         1.9920    6.7430   -1.5710 hn        1 MOL      0.340917
     41 N4         -1.0720    4.7030   -0.4390 n         1 MOL     -0.341910
     42 C13        -2.0680    5.1710   -1.4130 c3        1 MOL      0.050733
     43 C14        -3.5070    4.7500   -1.0330 c         1 MOL      0.383292
     44 O6         -4.4190    5.0060   -1.7930 o         1 MOL     -0.496101
     45 C15        -1.6800    4.5440   -2.7990 c3        1 MOL     -0.303187
     46 C16        -1.5720    2.9540   -2.7520 c         1 MOL      0.864354
     47 O7         -0.4350    2.4480   -2.6030 o         1 MOL     -0.788595
     48 O8         -2.5460    2.2410   -2.5590 o         1 MOL     -0.788595
     49 H21        -1.2190    3.8710    0.1180 hn        1 MOL      0.167292
     50 H22        -2.0010    6.2600   -1.4800 h1        1 MOL      0.125068
     51 H23        -0.6710    4.8310   -3.0930 hc        1 MOL      0.071945
     52 H24        -2.3840    4.7180   -3.6100 hc        1 MOL      0.071945
     53 N5         -3.7190    4.0260    0.0860 n         1 MOL     -0.121050
     54 C17        -5.0510    4.0080    0.7560 c3        1 MOL     -0.397718
     55 C18        -6.0160    2.9920    0.1560 c         1 MOL      0.648956
     56 O9         -7.2400    3.0540    0.3800 o         1 MOL     -0.584694
     57 H25        -2.8780    3.7230    0.5420 hn        1 MOL      0.181385
     58 H26        -5.5270    4.9560    0.5450 h1        1 MOL      0.168354
     59 H27        -4.8660    3.7680    1.8000 h1        1 MOL      0.168354
     60 N6         -5.5190    2.2230   -0.8290 n         1 MOL     -0.370867
     61 C19        -6.2810    1.1570   -1.4410 c3        1 MOL     -0.009841
     62 C20        -6.6250    0.0090   -0.5380 c         1 MOL      0.328313
     63 O10        -7.2900   -0.9030   -1.0410 o         1 MOL     -0.514462
     64 C21        -5.6120    0.7760   -2.7460 c3        1 MOL     -0.354292
     65 C22        -4.4570   -0.2530   -2.6820 c         1 MOL      0.824823
     66 N7         -4.1570   -0.8670   -3.7830 n         1 MOL     -0.731635
     67 O11        -3.7750   -0.5490   -1.6810 o         1 MOL     -0.760387
     68 H28        -4.5600    2.4360   -1.0730 hn        1 MOL      0.314908
     69 H29        -7.2120    1.6310   -1.7550 h1        1 MOL      0.140101
     70 H30        -5.2110    1.6730   -3.2260 hc        1 MOL      0.128120
     71 H31        -6.3430    0.2490   -3.3590 hc        1 MOL      0.128120
     72 H32        -4.5090   -0.5020   -4.6580 hn        1 MOL      0.336271
     73 H33        -3.4400   -1.5720   -3.7810 hn        1 MOL      0.336271
     74 N8         -6.0990   -0.0470    0.6870 n         1 MOL     -0.002829
     75 C23        -6.4020   -1.0640    1.7340 c3        1 MOL     -0.471130
     76 C24        -5.3830   -2.1610    1.8130 c         1 MOL      0.734821
     77 O12        -5.7190   -3.1880    2.3900 o         1 MOL     -0.566681
     78 H34        -5.5070    0.6900    1.0500 hn        1 MOL      0.198269
     79 H35        -7.2890   -1.6340    1.4350 h1        1 MOL      0.178898
     80 H36        -6.4880   -0.6280    2.7310 h1        1 MOL      0.178898
     81 N9         -4.1740   -2.0310    1.2730 n         1 MOL     -0.661360
     82 C25        -3.1800   -3.1120    1.1260 c3        1 MOL      0.317564
     83 C26        -1.7540   -2.5340    1.1670 c         1 MOL      0.310053
     84 O13        -1.4970   -1.3910    0.7130 o         1 MOL     -0.487232
     85 C27        -3.4040   -3.9320   -0.1820 c3        1 MOL      0.203950
     86 C28        -4.7720   -4.5730   -0.4340 ca        1 MOL      0.016735
     87 C29        -5.6770   -3.9000   -1.3150 ca        1 MOL     -0.295540
     88 C30        -5.2120   -5.7100    0.2410 ca        1 MOL     -0.295540
     89 C31        -7.0610   -4.2910   -1.3020 ca        1 MOL     -0.107453
     90 C32        -6.5590   -6.1400    0.2310 ca        1 MOL     -0.107453
     91 C33        -7.4460   -5.4180   -0.5510 ca        1 MOL      0.263326
     92 O14        -8.7270   -5.8500   -0.6100 oh        1 MOL     -0.519014
     93 H37        -4.0250   -1.1610    0.7910 hn        1 MOL      0.416465
     94 H38        -3.2470   -3.8720    1.9040 h1        1 MOL     -0.012596
     95 H39        -2.6600   -4.7320   -0.2360 hc        1 MOL     -0.060254
     96 H40        -3.1660   -3.2360   -0.9820 hc        1 MOL     -0.060254
     97 H41        -5.3410   -3.0630   -1.9110 ha        1 MOL      0.163893
     98 H42        -4.5210   -6.2050    0.8980 ha        1 MOL      0.163893
     99 H43        -7.8440   -3.7630   -1.8210 ha        1 MOL      0.122942
    100 H44        -6.8990   -7.0590    0.6850 ha        1 MOL      0.122942
    101 H45        -9.3110   -5.4610   -1.2770 ho        1 MOL      0.380991
    102 N10        -0.8150   -3.3790    1.5420 n         1 MOL     -0.350763
    103 C34         0.6450   -3.0190    1.6000 c3        1 MOL     -0.061077
    104 C35         1.4760   -4.0190    0.7630 c         1 MOL      0.376891
    105 O15         1.3670   -5.2130    0.8890 o         1 MOL     -0.514128
    106 C36         1.1360   -3.1280    3.0670 c3        1 MOL      0.291546
    107 C37         0.2140   -2.2430    3.9630 c3        1 MOL      0.258714
    108 C38         2.6370   -2.6950    3.2310 c3        1 MOL     -0.401121
    109 C39         0.5390   -2.4270    5.4600 c3        1 MOL     -0.382798
    110 H46        -1.1180   -4.2810    1.8840 hn        1 MOL      0.273962
    111 H47         0.8430   -1.9740    1.3420 h1        1 MOL      0.118475
    112 H48         0.9890   -4.1390    3.4460 hc        1 MOL     -0.038830
    113 H49        -0.7950   -2.6350    3.8080 hc        1 MOL     -0.050161
    114 H50         0.3150   -1.2050    3.6580 hc        1 MOL     -0.050161
    115 H51         2.7680   -1.6240    3.0970 hc        1 MOL      0.082987
    116 H52         2.9530   -3.0710    4.1950 hc        1 MOL      0.082987
    117 H53         3.2590   -3.2050    2.4870 hc        1 MOL      0.082987
    118 H54         0.5960   -3.4910    5.6810 hc        1 MOL      0.083998
    119 H55         1.4710   -1.9200    5.7210 hc        1 MOL      0.083998
    120 H56        -0.2880   -2.0170    6.0430 hc        1 MOL      0.083998
    121 N11         2.2980   -3.4680   -0.1580 n         1 MOL     -0.040989
    122 C40         3.3110   -4.0770   -1.0800 c3        1 MOL     -0.068660
    123 C41         4.7530   -3.8640   -0.6620 c         1 MOL      0.438384
    124 O16         5.1240   -3.0630    0.1710 o         1 MOL     -0.426307
    125 C42         3.0380   -3.5830   -2.4760 c3        1 MOL     -0.023825
    126 O17         3.2100   -2.1570   -2.5940 oh        1 MOL     -0.559687
    127 H57         2.1870   -2.4680   -0.2550 hn        1 MOL      0.193406
    128 H58         3.0780   -5.1400   -1.0530 h1        1 MOL      0.069034
    129 H59         2.0020   -3.8600   -2.6930 h1        1 MOL      0.074053
    130 H60         3.6590   -4.0570   -3.2400 h1        1 MOL      0.074053
    131 H61         2.6030   -1.7130   -2.0080 ho        1 MOL      0.369414
    132 N12         5.7160   -4.5350   -1.3010 n         1 MOL     -0.391385
    133 C43         7.2220   -4.4330   -1.2300 c3        1 MOL      0.081560
    134 C44         7.6530   -2.9560   -1.4110 c         1 MOL      0.475021
    135 O18         8.4800   -2.4690   -0.6200 o         1 MOL     -0.520267
    136 C45         7.7440   -5.4270   -2.2350 c3        1 MOL     -0.311648
    137 H62         5.3850   -5.1340   -2.0460 hn        1 MOL      0.237668
    138 H63         7.4920   -4.8120   -0.2420 h1        1 MOL      0.114348
    139 H64         7.7460   -6.4300   -1.8190 hc        1 MOL      0.098349
    140 H65         7.2100   -5.3990   -3.1790 hc        1 MOL      0.098349
    141 H66         8.7580   -5.1560   -2.5330 hc        1 MOL      0.098349
    142 N13         7.0390   -2.2010   -2.3290 n         1 MOL     -0.390495
    143 C46         7.4450   -0.8210   -2.6180 c3        1 MOL      0.150911
    144 C47         7.1710    0.1460   -1.3760 c         1 MOL      0.292154
    145 O19         7.9740    1.0000   -1.0220 o         1 MOL     -0.488823
    146 C48         6.6710   -0.2010   -3.7940 c3        1 MOL     -0.295128
    147 H67         6.3830   -2.6810   -2.9350 hn        1 MOL      0.281551
    148 H68         8.5180   -0.8100   -2.8140 h1        1 MOL      0.079714
    149 H69         5.6040   -0.1920   -3.5760 hc        1 MOL      0.081837
    150 H70         7.1440    0.7250   -4.1330 hc        1 MOL      0.081837
    151 H71         6.8580   -0.9620   -4.5570 hc        1 MOL      0.081837
    152 N14         5.9930   -0.0260   -0.7370 n         1 MOL     -0.015673
    153 C49         5.5410    0.7640    0.3870 c3        1 MOL     -0.287988
    154 C50         6.2350    0.4420    1.6820 c         1 MOL      0.510434
    155 O20         6.2910    1.3500    2.5270 o         1 MOL     -0.551681
    156 C51         4.0360    0.4510    0.6130 c3        1 MOL      0.170221
    157 C52         3.1790    0.9510   -0.6370 c3        1 MOL     -0.024514
    158 C53         1.7540    0.4300   -0.7040 c         1 MOL      0.775090
    159 O21         0.8420    0.9720   -0.0400 o         1 MOL     -0.796503
    160 O22         1.4230   -0.5390   -1.3830 o         1 MOL     -0.796503
    161 H72         5.3810   -0.7440   -1.1040 hn        1 MOL      0.202013
    162 H73         5.7130    1.8160    0.1430 h1        1 MOL      0.143579
    163 H74         3.6190    0.9710    1.4760 hc        1 MOL     -0.021451
    164 H75         3.9430   -0.6310    0.6940 hc        1 MOL     -0.021451
    165 H76         3.6510    0.5900   -1.5600 hc        1 MOL     -0.054936
    166 H77         3.2090    2.0430   -0.6450 hc        1 MOL     -0.054936
    167 N15         6.7870   -0.7420    1.9090 n         1 MOL     -0.075041
    168 C54         7.7000   -1.1080    2.9610 c3        1 MOL     -0.377092
    169 H78         8.6980   -0.7450    2.7180 h1        1 MOL      0.136715
    170 H79         7.3710   -0.6620    3.8990 h1        1 MOL      0.136715
    171 H80         7.7230   -2.1930    3.0620 h1        1 MOL      0.136715
    172 H81         6.4570   -1.5050    1.3310 hn        1 MOL      0.136524
    173 Ca1        -1.2570    0.2210   -1.4290 Ca        1 MOL      1.779797
    174 O23        -0.8920   -2.4850   -2.2810 oh        1 MOL     -0.845527
    175 H82        -0.1480   -2.7580   -2.8240 ho        1 MOL      0.411129
    176 H83        -1.6570   -2.6540   -2.8240 ho        1 MOL      0.411129
    177 O24        -1.1220   -0.3080   -4.0710 oh        1 MOL     -0.845527
    178 H84        -0.6610   -1.0960   -4.3540 ho        1 MOL      0.411129
    179 H85        -1.1430    0.2550   -4.8550 ho        1 MOL      0.411129
@<TRIPOS>BOND
     1    1    2 1   
     2    1    4 1   
     3    1    5 1   
     4    1    6 1   
     5    2    3 2   
     6    2    7 1   
     7    7    8 1   
     8    7   15 1   
     9    8    9 1   
    10    8   11 1   
    11    8   16 1   
    12    9   10 2   
    13    9   19 1   
    14   11   12 1   
    15   11   17 1   
    16   11   18 1   
    17   12   13 1   
    18   12   14 1   
    19   19   20 1   
    20   19   28 1   
    21   20   21 1   
    22   20   23 1   
    23   20   29 1   
    24   21   22 2   
    25   21   41 1   
    26   23   24 1   
    27   23   30 1   
    28   23   31 1   
    29   24   25 1   
    30   24   32 1   
    31   24   33 1   
    32   25   26 1   
    33   25   34 1   
    34   25   35 1   
    35   26   27 1   
    36   26   36 1   
    37   26   37 1   
    38   27   38 1   
    39   27   39 1   
    40   27   40 1   
    41   41   42 1   
    42   41   49 1   
    43   42   43 1   
    44   42   45 1   
    45   42   50 1   
    46   43   44 2   
    47   43   53 1   
    48   45   46 1   
    49   45   51 1   
    50   45   52 1   
    51   46   47 1   
    52   46   48 1   
    53   53   54 1   
    54   53   57 1   
    55   54   55 1   
    56   54   58 1   
    57   54   59 1   
    58   55   56 2   
    59   55   60 1   
    60   60   61 1   
    61   60   68 1   
    62   61   62 1   
    63   61   64 1   
    64   61   69 1   
    65   62   63 2   
    66   62   74 1   
    67   64   65 1   
    68   64   70 1   
    69   64   71 1   
    70   65   66 1   
    71   65   67 2   
    72   66   72 1   
    73   66   73 1   
    74   74   75 1   
    75   74   78 1   
    76   75   76 1   
    77   75   79 1   
    78   75   80 1   
    79   76   77 2   
    80   76   81 1   
    81   81   82 1   
    82   81   93 1   
    83   82   83 1   
    84   82   85 1   
    85   82   94 1   
    86   83   84 2   
    87   83  102 1   
    88   85   86 1   
    89   85   95 1   
    90   85   96 1   
    91   86   87 ar  
    92   86   88 ar  
    93   87   89 ar  
    94   87   97 1   
    95   88   90 ar  
    96   88   98 1   
    97   89   91 ar  
    98   89   99 1   
    99   90   91 ar  
   100   90  100 1   
   101   91   92 1   
   102   92  101 1   
   103  102  103 1   
   104  102  110 1   
   105  103  104 1   
   106  103  106 1   
   107  103  111 1   
   108  104  105 2   
   109  104  121 1   
   110  106  107 1   
   111  106  108 1   
   112  106  112 1   
   113  107  109 1   
   114  107  113 1   
   115  107  114 1   
   116  108  115 1   
   117  108  116 1   
   118  108  117 1   
   119  109  118 1   
   120  109  119 1   
   121  109  120 1   
   122  121  122 1   
   123  121  127 1   
   124  122  123 1   
   125  122  125 1   
   126  122  128 1   
   127  123  124 2   
   128  123  132 1   
   129  125  126 1   
   130  125  129 1   
   131  125  130 1   
   132  126  131 1   
   133  132  133 1   
   134  132  137 1   
   135  133  134 1   
   136  133  136 1   
   137  133  138 1   
   138  134  135 2   
   139  134  142 1   
   140  136  139 1   
   141  136  140 1   
   142  136  141 1   
   143  142  143 1   
   144  142  147 1   
   145  143  144 1   
   146  143  146 1   
   147  143  148 1   
   148  144  145 2   
   149  144  152 1   
   150  146  149 1   
   151  146  150 1   
   152  146  151 1   
   153  152  153 1   
   154  152  161 1   
   155  153  154 1   
   156  153  156 1   
   157  153  162 1   
   158  154  155 2   
   159  154  167 1   
   160  156  157 1   
   161  156  163 1   
   162  156  164 1   
   163  157  158 1   
   164  157  165 1   
   165  157  166 1   
   166  158  159 1   
   167  158  160 1   
   168  167  168 1   
   169  167  172 1   
   170  168  169 1   
   171  168  170 1   
   172  168  171 1   
   173  174  175 1   
   174  174  176 1   
   175  177  178 1   
   176  177  179 1   
@<TRIPOS>SUBSTRUCTURE
     1 MOL         1 TEMP              0 ****  ****    0 ROOT
