@<TRIPOS>MOLECULE
MOL
  180   179     1     0     0
SMALL
resp


@<TRIPOS>ATOM
      1 C1         -1.4550    3.4650    6.1240 c3        1 MOL     -0.255239
      2 C2         -1.5660    3.1880    4.5900 c         1 MOL      0.687646
      3 O1         -0.6150    3.6180    3.9150 o         1 MOL     -0.558815
      4 H1         -2.2300    4.1710    6.4220 hc        1 MOL      0.051293
      5 H2         -1.5850    2.5320    6.6720 hc        1 MOL      0.051293
      6 H3         -0.4750    3.8860    6.3470 hc        1 MOL      0.051293
      7 N1         -2.5640    2.4480    4.0800 n         1 MOL     -0.577818
      8 C3         -2.8550    2.1830    2.6260 c3        1 MOL      0.083471
      9 C4         -3.4660    3.4210    1.9600 c         1 MOL      0.552173
     10 O2         -4.2560    4.1590    2.5440 o         1 MOL     -0.560930
     11 C5         -3.8630    1.0240    2.6260 c3        1 MOL     -0.329027
     12 C6         -4.3630    0.6150    1.2030 c         1 MOL      0.805449
     13 O3         -5.4160   -0.0660    1.1650 o         1 MOL     -0.716129
     14 O4         -3.6970    0.8710    0.1930 o         1 MOL     -0.716129
     15 H4         -3.2110    2.0830    4.7620 hn        1 MOL      0.299235
     16 H5         -1.9090    1.8700    2.1890 h1        1 MOL      0.082480
     17 H6         -4.7900    1.2450    3.1550 hc        1 MOL      0.083176
     18 H7         -3.3840    0.2020    3.1580 hc        1 MOL      0.083176
     19 N2         -2.9380    3.6440    0.7190 n         1 MOL     -0.274520
     20 C7         -3.2670    4.7690   -0.1080 c3        1 MOL     -0.251747
     21 C8         -4.2910    4.3050   -1.2630 c         1 MOL      0.442945
     22 O5         -5.2080    5.0930   -1.5730 o         1 MOL     -0.558176
     23 C9         -1.9300    5.3660   -0.6720 c3        1 MOL      0.253765
     24 C10        -0.9840    5.8390    0.3610 c3        1 MOL      0.121416
     25 C11        -2.2100    6.5080   -1.6940 c3        1 MOL     -0.241800
     26 C12         0.4640    6.1530    0.1180 c3        1 MOL     -0.306291
     27 H8         -2.3360    2.9390    0.2990 hn        1 MOL      0.249098
     28 H9         -3.7350    5.5780    0.4550 h1        1 MOL      0.121880
     29 H10        -1.3450    4.5220   -1.0550 hc        1 MOL      0.000701
     30 H11        -0.9630    5.0330    1.0890 hc        1 MOL     -0.044754
     31 H12        -1.5210    6.7440    0.6780 hc        1 MOL     -0.044754
     32 H13        -1.2580    6.9280   -2.0040 hc        1 MOL      0.046440
     33 H14        -2.6270    6.2400   -2.6720 hc        1 MOL      0.046440
     34 H15        -2.6780    7.3510   -1.2050 hc        1 MOL      0.046440
     35 H16         1.0600    5.9540    1.0100 hc        1 MOL      0.064578
     36 H17         0.7990    5.5840   -0.7490 hc        1 MOL      0.064578
     37 H18         0.4240    7.2380    0.0010 hc        1 MOL      0.064578
     38 N3         -4.1740    3.0650   -1.6710 n         1 MOL     -0.007116
     39 C13        -5.1560    2.5210   -2.6540 c3        1 MOL     -0.432114
     40 C14        -6.5350    2.2440   -2.1380 c         1 MOL      0.556960
     41 O6         -7.5230    2.2010   -2.9150 o         1 MOL     -0.551436
     42 C15        -4.6970    1.2370   -3.4190 c3        1 MOL      0.266394
     43 C16        -3.2440    1.1950   -3.8250 c         1 MOL      0.580754
     44 O7         -2.9090    2.0200   -4.6710 o         1 MOL     -0.679545
     45 O8         -2.5000    0.3110   -3.2580 o         1 MOL     -0.679545
     46 H19        -3.5190    2.4640   -1.1900 hn        1 MOL      0.119201
     47 H20        -5.1880    3.2310   -3.4750 h1        1 MOL      0.152734
     48 H21        -5.2460    1.1830   -4.3600 hc        1 MOL     -0.040005
     49 H22        -4.9850    0.3260   -2.8910 hc        1 MOL     -0.040005
     50 N4         -6.5760    1.9130   -0.8300 n         1 MOL     -0.289178
     51 C17        -7.7050    1.3700   -0.1950 c3        1 MOL     -0.101904
     52 C18        -8.0470    0.0070   -0.6510 c         1 MOL      0.484031
     53 O9         -9.2460   -0.2630   -0.7220 o         1 MOL     -0.627349
     54 H23        -5.6650    1.7260   -0.4340 hn        1 MOL      0.240861
     55 H24        -8.6050    1.9730   -0.3340 h1        1 MOL      0.072819
     56 H25        -7.5340    1.3620    0.8810 h1        1 MOL      0.072819
     57 N5         -7.1000   -0.8380   -0.8900 n         1 MOL     -0.044414
     58 C19        -7.1500   -2.2420   -1.2890 c3        1 MOL     -0.195408
     59 C20        -6.9270   -3.2920   -0.1270 c         1 MOL      0.622886
     60 O10        -6.8470   -4.5080   -0.4060 o         1 MOL     -0.553484
     61 C21        -6.3520   -2.4130   -2.5760 c3        1 MOL     -0.012963
     62 C22        -4.8520   -2.4520   -2.3030 c         1 MOL      0.517595
     63 O11        -3.9960   -2.8400   -3.1110 o         1 MOL     -0.670081
     64 O12        -4.3240   -1.9070   -1.2840 o         1 MOL     -0.670081
     65 H26        -6.1750   -0.5640   -0.6040 hn        1 MOL      0.073133
     66 H27        -8.2060   -2.4260   -1.4870 h1        1 MOL      0.085323
     67 H28        -6.6890   -1.6450   -3.2710 hc        1 MOL      0.039585
     68 H29        -6.6470   -3.3230   -3.1090 hc        1 MOL      0.039585
     69 N6         -7.0030   -2.8770    1.1490 n         1 MOL     -0.521742
     70 C23        -6.6210   -3.6870    2.3580 c3        1 MOL      0.146257
     71 C24        -5.1770   -4.1290    2.5220 c         1 MOL      0.446465
     72 O13        -4.9110   -5.1550    3.2260 o         1 MOL     -0.596593
     73 H30        -6.8020   -1.8920    1.2780 hn        1 MOL      0.329144
     74 H31        -7.3060   -4.5050    2.5500 h1        1 MOL      0.017451
     75 H32        -6.6930   -2.9370    3.1460 h1        1 MOL      0.017451
     76 N7         -4.2330   -3.5240    1.8320 n         1 MOL     -0.107579
     77 C25        -2.8220   -3.9630    1.9570 c3        1 MOL     -0.044743
     78 C26        -1.8800   -2.7850    1.9140 c         1 MOL      0.565086
     79 O14        -2.1860   -1.7000    1.3880 o         1 MOL     -0.598621
     80 C27        -2.4580   -5.2080    1.2200 c3        1 MOL     -0.256645
     81 C28        -2.7520   -5.2060   -0.2780 c3        1 MOL     -0.062056
     82 C29        -1.8040   -4.4400   -1.1950 c         1 MOL      0.620699
     83 N8         -1.4620   -5.0160   -2.3150 n         1 MOL     -0.795999
     84 O15        -1.3830   -3.2930   -1.0220 o         1 MOL     -0.581753
     85 H33        -4.4650   -2.7380    1.2540 hn        1 MOL      0.141817
     86 H34        -2.6670   -4.2030    3.0130 h1        1 MOL      0.040080
     87 H35        -3.0860   -5.9800    1.6660 hc        1 MOL      0.104508
     88 H36        -1.4040   -5.4020    1.4310 hc        1 MOL      0.104508
     89 H37        -3.7600   -4.8260   -0.4360 hc        1 MOL      0.045711
     90 H38        -2.6050   -6.2200   -0.6250 hc        1 MOL      0.045711
     91 H39        -1.8540   -5.9110   -2.5440 hn        1 MOL      0.382923
     92 H40        -0.9270   -4.4240   -2.9320 hn        1 MOL      0.382923
     93 N9         -0.6110   -3.0330    2.3740 n         1 MOL     -0.383217
     94 C30         0.4970   -2.0450    2.4400 c3        1 MOL     -0.021522
     95 C31         1.7320   -2.5710    1.6680 c         1 MOL      0.324974
     96 O16         2.3580   -3.5160    2.1490 o         1 MOL     -0.540909
     97 C32         1.0450   -1.6810    3.8750 c3        1 MOL      0.235429
     98 C33         2.1280   -0.5630    3.8340 c3        1 MOL     -0.212935
     99 C34        -0.0740   -1.1470    4.7470 c3        1 MOL     -0.212935
    100 H41        -0.3830   -3.9120    2.8090 hn        1 MOL      0.273837
    101 H42         0.1980   -1.1290    1.9370 h1        1 MOL      0.136154
    102 H43         1.4860   -2.5180    4.4150 hc        1 MOL     -0.022185
    103 H44         2.2480   -0.3740    4.9010 hc        1 MOL      0.037758
    104 H45         3.1190   -0.8700    3.4950 hc        1 MOL      0.037758
    105 H46         1.7600    0.3580    3.3730 hc        1 MOL      0.037758
    106 H47        -0.8720   -1.8800    4.7600 hc        1 MOL      0.037758
    107 H48         0.2010   -0.9890    5.7830 hc        1 MOL      0.037758
    108 H49        -0.5180   -0.2540    4.3010 hc        1 MOL      0.037758
    109 N10         1.8910   -2.0530    0.4660 n         1 MOL     -0.122932
    110 C35         3.0410   -2.2020   -0.4360 c3        1 MOL     -0.009446
    111 C36         4.4180   -1.7900    0.1600 c         1 MOL      0.370258
    112 O17         4.4730   -1.1180    1.2210 o         1 MOL     -0.303270
    113 C37         2.8250   -1.5310   -1.7940 c3        1 MOL     -0.277794
    114 C38         1.3990   -1.8910   -2.3920 c         1 MOL      0.734469
    115 N11         1.2870   -2.9580   -3.1720 n         1 MOL     -0.831369
    116 O18         0.4090   -1.3300   -2.0490 o         1 MOL     -0.620486
    117 H50         1.2050   -1.3590    0.2240 hn        1 MOL      0.181534
    118 H51         3.0610   -3.2700   -0.6520 h1        1 MOL      0.059982
    119 H52         3.5950   -1.7850   -2.5170 hc        1 MOL      0.115256
    120 H53         2.8410   -0.4440   -1.7850 hc        1 MOL      0.115256
    121 H54         2.1500   -3.3560   -3.5150 hn        1 MOL      0.373686
    122 H55         0.4240   -3.0560   -3.6800 hn        1 MOL      0.373686
    123 N12         5.5390   -2.2350   -0.4190 n         1 MOL     -0.492823
    124 C39         6.8540   -1.7440   -0.0070 c3        1 MOL      0.203818
    125 C40         6.9230   -0.2410   -0.2830 c         1 MOL      0.493967
    126 O19         7.2780    0.5920    0.5930 o         1 MOL     -0.553372
    127 C41         8.0290   -2.4360   -0.6640 c3        1 MOL     -0.171357
    128 C42         9.3180   -1.7720   -0.2310 ca        1 MOL      0.191584
    129 C43         9.8670   -2.0680    1.0370 ca        1 MOL     -0.244582
    130 C44        10.1360   -1.0880   -1.1580 ca        1 MOL     -0.244582
    131 C45        11.0240   -1.4510    1.5090 ca        1 MOL     -0.234136
    132 C46        11.3690   -0.5740   -0.6930 ca        1 MOL     -0.234136
    133 C47        11.8070   -0.7080    0.6730 ca        1 MOL      0.318009
    134 O20        12.8930   -0.0470    1.0860 oh        1 MOL     -0.488436
    135 H56         5.4680   -2.8440   -1.2180 hn        1 MOL      0.321342
    136 H57         6.9310   -1.9390    1.0620 h1        1 MOL      0.041468
    137 H58         7.9050   -2.4770   -1.7510 hc        1 MOL      0.051145
    138 H59         8.1310   -3.5030   -0.4700 hc        1 MOL      0.051145
    139 H60         9.3210   -2.6900    1.7370 ha        1 MOL      0.148993
    140 H61         9.7160   -0.7910   -2.0980 ha        1 MOL      0.148993
    141 H62        11.3820   -1.6580    2.5040 ha        1 MOL      0.135058
    142 H63        11.8520    0.1400   -1.3520 ha        1 MOL      0.135058
    143 H64        13.2620    0.4700    0.3760 ho        1 MOL      0.354052
    144 N13         6.4910    0.1810   -1.4620 n         1 MOL     -0.248657
    145 C48         6.3360    1.6190   -1.7520 c3        1 MOL      0.047222
    146 C49         5.2960    2.4780   -0.9370 c         1 MOL      0.235160
    147 O21         5.3400    3.6990   -0.9750 o         1 MOL     -0.504729
    148 C50         6.1560    1.9360   -3.2610 c3        1 MOL     -0.036058
    149 C51         7.0610    1.1160   -4.2110 c3        1 MOL     -0.192644
    150 C52         6.2950   -0.1490   -4.5400 c         1 MOL      0.636575
    151 O22         6.3980   -1.1760   -3.8450 o         1 MOL     -0.678153
    152 O23         5.4550   -0.0970   -5.5000 o         1 MOL     -0.678153
    153 H65         6.3120   -0.4930   -2.1830 hn        1 MOL      0.165296
    154 H66         7.3040    2.0600   -1.5230 h1        1 MOL      0.064969
    155 H67         6.3700    2.9880   -3.4380 hc        1 MOL      0.055108
    156 H68         5.1370    1.6750   -3.5380 hc        1 MOL      0.055108
    157 H69         8.0390    0.9720   -3.7560 hc        1 MOL      0.027107
    158 H70         7.2740    1.7330   -5.0870 hc        1 MOL      0.027107
    159 N14         4.4440    1.8500   -0.1140 n         1 MOL      0.112229
    160 C53         3.6270    2.5080    0.8830 c3        1 MOL     -0.062655
    161 C54         4.2540    2.4660    2.2560 c         1 MOL      0.446707
    162 O24         4.0690    3.3620    3.0680 o         1 MOL     -0.566959
    163 C55         2.1800    1.9240    0.9630 c3        1 MOL     -0.080374
    164 C56         1.4750    2.1490   -0.3980 c3        1 MOL      0.043332
    165 C57         0.1030    1.4660   -0.3540 c         1 MOL      0.651184
    166 O25        -0.8590    1.8210   -1.0210 o         1 MOL     -0.725108
    167 O26         0.0380    0.4000    0.2980 o         1 MOL     -0.725108
    168 H71         4.5320    0.8570    0.0130 hn        1 MOL     -0.022978
    169 H72         3.4930    3.5690    0.6550 h1        1 MOL      0.084124
    170 H73         1.5360    2.2490    1.7660 hc        1 MOL      0.097650
    171 H74         2.2100    0.8370    1.0440 hc        1 MOL      0.097650
    172 H75         2.2280    1.7490   -1.0920 hc        1 MOL     -0.009483
    173 H76         1.3690    3.1880   -0.7320 hc        1 MOL     -0.009483
    174 N15         5.0480    1.4380    2.5960 n         1 MOL     -0.060412
    175 C58         5.7570    1.1670    3.8910 c3        1 MOL     -0.252724
    176 H77         5.1340    1.5010    4.7220 h1        1 MOL      0.096637
    177 H78         5.9450    0.0970    3.9860 h1        1 MOL      0.096637
    178 H79         6.7030    1.7060    3.9080 h1        1 MOL      0.096637
    179 H80         5.0810    0.6650    1.9580 hn        1 MOL      0.014623
    180 Ca1        -2.0900   -0.7140   -0.9930 Ca        1 MOL      1.736859
@<TRIPOS>BOND
     1    1    2 1   
     2    1    4 1   
     3    1    5 1   
     4    1    6 1   
     5    2    3 2   
     6    2    7 1   
     7    7    8 1   
     8    7   15 1   
     9    8    9 1   
    10    8   11 1   
    11    8   16 1   
    12    9   10 2   
    13    9   19 1   
    14   11   12 1   
    15   11   17 1   
    16   11   18 1   
    17   12   13 1   
    18   12   14 1   
    19   19   20 1   
    20   19   27 1   
    21   20   21 1   
    22   20   23 1   
    23   20   28 1   
    24   21   22 2   
    25   21   38 1   
    26   23   24 1   
    27   23   25 1   
    28   23   29 1   
    29   24   26 1   
    30   24   30 1   
    31   24   31 1   
    32   25   32 1   
    33   25   33 1   
    34   25   34 1   
    35   26   35 1   
    36   26   36 1   
    37   26   37 1   
    38   38   39 1   
    39   38   46 1   
    40   39   40 1   
    41   39   42 1   
    42   39   47 1   
    43   40   41 2   
    44   40   50 1   
    45   42   43 1   
    46   42   48 1   
    47   42   49 1   
    48   43   44 1   
    49   43   45 1   
    50   50   51 1   
    51   50   54 1   
    52   51   52 1   
    53   51   55 1   
    54   51   56 1   
    55   52   53 2   
    56   52   57 1   
    57   57   58 1   
    58   57   65 1   
    59   58   59 1   
    60   58   61 1   
    61   58   66 1   
    62   59   60 2   
    63   59   69 1   
    64   61   62 1   
    65   61   67 1   
    66   61   68 1   
    67   62   63 1   
    68   62   64 1   
    69   69   70 1   
    70   69   73 1   
    71   70   71 1   
    72   70   74 1   
    73   70   75 1   
    74   71   72 2   
    75   71   76 1   
    76   76   77 1   
    77   76   85 1   
    78   77   78 1   
    79   77   80 1   
    80   77   86 1   
    81   78   79 2   
    82   78   93 1   
    83   80   81 1   
    84   80   87 1   
    85   80   88 1   
    86   81   82 1   
    87   81   89 1   
    88   81   90 1   
    89   82   83 1   
    90   82   84 2   
    91   83   91 1   
    92   83   92 1   
    93   93   94 1   
    94   93  100 1   
    95   94   95 1   
    96   94   97 1   
    97   94  101 1   
    98   95   96 2   
    99   95  109 1   
   100   97   98 1   
   101   97   99 1   
   102   97  102 1   
   103   98  103 1   
   104   98  104 1   
   105   98  105 1   
   106   99  106 1   
   107   99  107 1   
   108   99  108 1   
   109  109  110 1   
   110  109  117 1   
   111  110  111 1   
   112  110  113 1   
   113  110  118 1   
   114  111  112 2   
   115  111  123 1   
   116  113  114 1   
   117  113  119 1   
   118  113  120 1   
   119  114  115 1   
   120  114  116 2   
   121  115  121 1   
   122  115  122 1   
   123  123  124 1   
   124  123  135 1   
   125  124  125 1   
   126  124  127 1   
   127  124  136 1   
   128  125  126 2   
   129  125  144 1   
   130  127  128 1   
   131  127  137 1   
   132  127  138 1   
   133  128  129 ar  
   134  128  130 ar  
   135  129  131 ar  
   136  129  139 1   
   137  130  132 ar  
   138  130  140 1   
   139  131  133 ar  
   140  131  141 1   
   141  132  133 ar  
   142  132  142 1   
   143  133  134 1   
   144  134  143 1   
   145  144  145 1   
   146  144  153 1   
   147  145  146 1   
   148  145  148 1   
   149  145  154 1   
   150  146  147 2   
   151  146  159 1   
   152  148  149 1   
   153  148  155 1   
   154  148  156 1   
   155  149  150 1   
   156  149  157 1   
   157  149  158 1   
   158  150  151 1   
   159  150  152 1   
   160  159  160 1   
   161  159  168 1   
   162  160  161 1   
   163  160  163 1   
   164  160  169 1   
   165  161  162 2   
   166  161  174 1   
   167  163  164 1   
   168  163  170 1   
   169  163  171 1   
   170  164  165 1   
   171  164  172 1   
   172  164  173 1   
   173  165  166 1   
   174  165  167 1   
   175  174  175 1   
   176  174  179 1   
   177  175  176 1   
   178  175  177 1   
   179  175  178 1   
@<TRIPOS>SUBSTRUCTURE
     1 MOL         1 TEMP              0 ****  ****    0 ROOT
