@<TRIPOS>MOLECULE
MOL
  179   176     1     0     0
SMALL
resp


@<TRIPOS>ATOM
      1 C1          0.9000    4.1450    6.7940 c3        1 MOL     -0.371300
      2 C2          1.1720    3.8600    5.3520 c         1 MOL      0.721888
      3 O1          2.3410    3.6760    4.9780 o         1 MOL     -0.580486
      4 H1          0.5930    3.2260    7.2930 hc        1 MOL      0.094660
      5 H2          1.8050    4.5280    7.2670 hc        1 MOL      0.094660
      6 H3          0.1060    4.8850    6.8750 hc        1 MOL      0.094660
      7 N1          0.1390    3.5260    4.5920 n         1 MOL     -0.641602
      8 C3          0.2970    2.9990    3.1640 c3        1 MOL      0.233394
      9 C4          0.4630    4.1890    2.2570 c         1 MOL      0.565016
     10 O2          0.2460    5.3390    2.6230 o         1 MOL     -0.576864
     11 C5         -0.9530    2.1320    2.8090 c3        1 MOL     -0.062015
     12 C6         -1.2870    1.6930    1.4490 c         1 MOL      0.720449
     13 O3         -0.4080    1.6780    0.5950 o         1 MOL     -0.773501
     14 O4         -2.4720    1.3240    1.2260 o         1 MOL     -0.773501
     15 H4         -0.7800    3.7260    4.9740 hn        1 MOL      0.310574
     16 H5          1.1910    2.3930    2.9970 h1        1 MOL      0.010123
     17 H6         -1.7680    2.8310    2.9960 hc        1 MOL      0.014052
     18 H7         -0.9670    1.3310    3.5400 hc        1 MOL      0.014052
     19 N2          0.8970    3.9290    1.1040 n         1 MOL     -0.497868
     20 C7          1.2640    4.8570    0.0470 c3        1 MOL      0.011575
     21 C8          0.1120    5.4760   -0.7780 c         1 MOL      0.507509
     22 O5          0.1720    6.6370   -1.1100 o         1 MOL     -0.546988
     23 C9          2.3800    4.2330   -0.7400 c3        1 MOL     -0.023559
     24 C10         3.0980    5.3760   -1.5320 c3        1 MOL     -0.026683
     25 C11         4.3330    4.8540   -2.2400 c3        1 MOL     -0.026723
     26 C12         4.8170    5.8830   -3.2440 c3        1 MOL      0.049420
     27 N3          6.0300    5.4350   -3.8740 n4        1 MOL     -0.382750
     28 H8          0.7940    2.9700    0.8180 hn        1 MOL      0.315290
     29 H9          1.5930    5.7620    0.5540 h1        1 MOL      0.113885
     30 H10         2.0740    3.4270   -1.3940 hc        1 MOL      0.063940
     31 H11         3.1440    3.8780   -0.0490 hc        1 MOL      0.063940
     32 H12         3.2840    6.1870   -0.8350 hc        1 MOL      0.016415
     33 H13         2.4000    5.8480   -2.2260 hc        1 MOL      0.016415
     34 H14         3.9660    4.0020   -2.8230 hc        1 MOL      0.051990
     35 H15         5.0860    4.5720   -1.5010 hc        1 MOL      0.051990
     36 H16         4.9520    6.7810   -2.6430 hx        1 MOL      0.080154
     37 H17         4.1010    6.0590   -4.0490 hx        1 MOL      0.080154
     38 H18         6.7640    5.3170   -3.1940 hn        1 MOL      0.332713
     39 H19         5.8850    4.5530   -4.3480 hn        1 MOL      0.332713
     40 H20         6.3540    6.1390   -4.5260 hn        1 MOL      0.332713
     41 N4         -1.0090    4.6980   -0.9480 n         1 MOL     -0.268951
     42 C13        -2.2640    5.1320   -1.5510 c3        1 MOL     -0.038012
     43 C14        -3.5160    4.9240   -0.6870 c         1 MOL      0.496364
     44 O6         -4.6280    5.3650   -0.9450 o         1 MOL     -0.546400
     45 C15        -2.3180    4.5610   -2.9970 c3        1 MOL     -0.222616
     46 C16        -2.3020    3.0680   -3.0740 c         1 MOL      0.716392
     47 O7         -2.4790    2.3630   -2.0080 o         1 MOL     -0.675692
     48 O8         -2.1100    2.5200   -4.1510 o         1 MOL     -0.675692
     49 H21        -0.9170    3.7430   -0.6200 hn        1 MOL      0.151931
     50 H22        -2.2600    6.2210   -1.5380 h1        1 MOL      0.120871
     51 H23        -1.4620    4.9290   -3.5750 hc        1 MOL      0.073428
     52 H24        -3.1400    5.0260   -3.5380 hc        1 MOL      0.073428
     53 N5         -3.4090    4.1880    0.4510 n         1 MOL     -0.190450
     54 C17        -4.5070    4.0350    1.4570 c3        1 MOL     -0.211862
     55 C18        -5.5860    2.9820    1.1660 c         1 MOL      0.669839
     56 O9         -6.5600    2.9610    1.9020 o         1 MOL     -0.599208
     57 H25        -2.5490    3.7220    0.6980 hn        1 MOL      0.118377
     58 H26        -4.9600    4.9640    1.8150 h1        1 MOL      0.112228
     59 H27        -4.1060    3.5360    2.3370 h1        1 MOL      0.112228
     60 N6         -5.3930    2.1120    0.1650 n         1 MOL     -0.439320
     61 C19        -6.4380    1.3320   -0.5110 c3        1 MOL     -0.091560
     62 C20        -6.8860   -0.0400    0.0830 c         1 MOL      0.429057
     63 O10        -7.4920   -0.8300   -0.6780 o         1 MOL     -0.524580
     64 C21        -6.1180    1.3460   -2.0580 c3        1 MOL     -0.055810
     65 C22        -5.2290    0.1850   -2.4210 c         1 MOL      0.786848
     66 N7         -5.5240   -0.6490   -3.3910 n         1 MOL     -0.824176
     67 O11        -4.1890    0.0570   -1.8150 o         1 MOL     -0.802262
     68 H28        -4.5840    2.2940   -0.4170 hn        1 MOL      0.353351
     69 H29        -7.3260    1.9680   -0.4730 h1        1 MOL      0.120121
     70 H30        -5.6730    2.2680   -2.4250 hc        1 MOL      0.044868
     71 H31        -6.9960    1.2080   -2.6960 hc        1 MOL      0.044868
     72 H32        -6.3680   -0.6250   -3.9330 hn        1 MOL      0.370792
     73 H33        -4.7810   -1.2540   -3.7300 hn        1 MOL      0.370792
     74 N8         -6.3250   -0.3890    1.2490 n         1 MOL     -0.164610
     75 C23        -6.6670   -1.5520    2.1290 c3        1 MOL     -0.217405
     76 C24        -5.6410   -2.7170    2.1150 c         1 MOL      0.578393
     77 O12        -5.8600   -3.7620    2.7080 o         1 MOL     -0.535842
     78 H34        -5.7780    0.3390    1.6850 hn        1 MOL      0.231370
     79 H35        -7.5740   -1.9900    1.7210 h1        1 MOL      0.121119
     80 H36        -6.9740   -1.2530    3.1270 h1        1 MOL      0.121119
     81 N9         -4.5290   -2.4220    1.4320 n         1 MOL     -0.470849
     82 C25        -3.4420   -3.3810    1.1220 c3        1 MOL      0.174230
     83 C26        -2.0160   -2.6060    1.1730 c         1 MOL      0.382825
     84 O13        -1.9980   -1.4720    0.8000 o         1 MOL     -0.480506
     85 C27        -3.6230   -3.8480   -0.3280 c3        1 MOL      0.050075
     86 C28        -4.9590   -4.5540   -0.5810 ca        1 MOL      0.029222
     87 C29        -5.1900   -5.8150   -0.0520 ca        1 MOL     -0.276034
     88 C30        -5.9210   -3.9300   -1.4090 ca        1 MOL     -0.276034
     89 C31        -6.4150   -6.4830   -0.3640 ca        1 MOL     -0.070251
     90 C32        -7.1780   -4.5680   -1.6370 ca        1 MOL     -0.070251
     91 C33        -7.3320   -5.8920   -1.2230 ca        1 MOL      0.196721
     92 O14        -8.4390   -6.5100   -1.6570 oh        1 MOL     -0.501994
     93 H37        -4.4540   -1.4950    1.0340 hn        1 MOL      0.297122
     94 H38        -3.4560   -4.2520    1.7770 h1        1 MOL      0.048035
     95 H39        -2.7870   -4.5130   -0.5300 hc        1 MOL      0.014183
     96 H40        -3.5180   -2.9960   -0.9980 hc        1 MOL      0.014183
     97 H41        -4.3810   -6.2010    0.5500 ha        1 MOL      0.168008
     98 H42        -5.7150   -2.9650   -1.8560 ha        1 MOL      0.168008
     99 H43        -6.3540   -7.5450   -0.1620 ha        1 MOL      0.102429
    100 H44        -7.8840   -4.1310   -2.3220 ha        1 MOL      0.102429
    101 H45        -9.0260   -5.9500   -2.1530 ho        1 MOL      0.384886
    102 N10        -0.9110   -3.3490    1.5450 n         1 MOL     -0.426787
    103 C34         0.5690   -2.9260    1.2760 c3        1 MOL     -0.062648
    104 C35         1.4340   -3.9990    0.6100 c         1 MOL      0.553809
    105 O15         1.3900   -5.2070    0.9380 o         1 MOL     -0.548647
    106 C36         1.2830   -2.3360    2.5290 c3        1 MOL     -0.016849
    107 C37         1.2790   -3.3140    3.7870 c3        1 MOL      0.174100
    108 C38         0.7340   -0.9660    2.8600 c3        1 MOL     -0.382159
    109 C39         2.1630   -2.9020    5.0010 c3        1 MOL     -0.294491
    110 H46        -1.1010   -4.2440    1.9730 hn        1 MOL      0.269288
    111 H47         0.4300   -2.1410    0.5300 h1        1 MOL      0.058673
    112 H48         2.3560   -2.1850    2.3560 hc        1 MOL      0.020884
    113 H49         1.6460   -4.3100    3.5410 hc        1 MOL     -0.000710
    114 H50         0.2880   -3.4850    4.1950 hc        1 MOL     -0.000710
    115 H51         0.8900   -0.2830    2.0220 hc        1 MOL      0.138464
    116 H52        -0.3310   -1.0050    3.0790 hc        1 MOL      0.138464
    117 H53         1.1880   -0.5090    3.7430 hc        1 MOL      0.138464
    118 H54         3.1710   -2.8480    4.5940 hc        1 MOL      0.070622
    119 H55         1.7340   -2.0090    5.4310 hc        1 MOL      0.070622
    120 H56         2.1790   -3.7130    5.7340 hc        1 MOL      0.070622
    121 N11         2.3710   -3.6030   -0.2780 n         1 MOL     -0.273983
    122 C40         3.4620   -4.3200   -0.9050 c3        1 MOL      0.065019
    123 C41         4.7890   -4.1040   -0.1370 c         1 MOL      0.484467
    124 O16         4.8890   -3.2190    0.7080 o         1 MOL     -0.384585
    125 C42         3.5540   -3.8520   -2.3690 c3        1 MOL     -0.072501
    126 O17         4.0370   -2.4800   -2.4460 oh        1 MOL     -0.406217
    127 H57         2.4680   -2.6080   -0.4260 hn        1 MOL      0.065420
    128 H58         3.1700   -5.3720   -1.0020 h1        1 MOL      0.082641
    129 H59         2.6060   -4.0090   -2.8860 h1        1 MOL      0.076164
    130 H60         4.2490   -4.5080   -2.8750 h1        1 MOL      0.076164
    131 H61         3.8670   -2.1150   -3.3200 ho        1 MOL      0.387849
    132 N12         5.7810   -4.8970   -0.4880 n         1 MOL     -0.526574
    133 C43         7.1230   -4.5770    0.0710 c3        1 MOL      0.268591
    134 C44         7.6220   -3.1770   -0.2450 c         1 MOL      0.360683
    135 O18         8.3770   -2.6400    0.6200 o         1 MOL     -0.497890
    136 C45         8.1820   -5.6830   -0.1880 c3        1 MOL     -0.404113
    137 H62         5.8220   -5.5520   -1.2560 hn        1 MOL      0.301769
    138 H63         6.9130   -4.5770    1.1330 h1        1 MOL      0.057061
    139 H64         7.6020   -6.6130   -0.2770 hc        1 MOL      0.119967
    140 H65         8.7640   -5.4160   -1.0650 hc        1 MOL      0.119967
    141 H66         8.8530   -5.8100    0.6650 hc        1 MOL      0.119967
    142 N13         7.2580   -2.6640   -1.4260 n         1 MOL     -0.298251
    143 C46         7.8710   -1.3660   -1.7910 c3        1 MOL      0.187512
    144 C47         7.0040   -0.2530   -1.2190 c         1 MOL      0.284627
    145 O19         7.4620    0.8090   -0.8000 o         1 MOL     -0.521555
    146 C48         7.8920   -1.4690   -3.3640 c3        1 MOL     -0.159291
    147 H67         6.8600   -3.2140   -2.1770 hn        1 MOL      0.231048
    148 H68         8.8980   -1.2220   -1.4560 h1        1 MOL      0.081487
    149 H69         8.4700   -2.3570   -3.6090 hc        1 MOL      0.037655
    150 H70         6.8960   -1.5500   -3.7930 hc        1 MOL      0.037655
    151 H71         8.4380   -0.6170   -3.7660 hc        1 MOL      0.037655
    152 N14         5.6910   -0.4310   -1.0060 n         1 MOL     -0.115231
    153 C49         4.9060    0.5430   -0.1260 c3        1 MOL     -0.160383
    154 C50         5.4100    0.4120    1.3350 c         1 MOL      0.554987
    155 O20         5.1630    1.3780    2.0310 o         1 MOL     -0.539564
    156 C51         3.3920    0.2170   -0.0700 c3        1 MOL      0.108202
    157 C52         2.9010    0.4790   -1.4770 c3        1 MOL      0.204046
    158 C53         1.3770    0.1520   -1.6820 c         1 MOL      0.553146
    159 O21         0.8440   -0.9190   -1.3530 o         1 MOL     -0.638019
    160 O22         0.7200    1.1690   -1.9650 o         1 MOL     -0.638019
    161 H72         5.1670   -1.2210   -1.3640 hn        1 MOL      0.067259
    162 H73         5.0950    1.5390   -0.5280 h1        1 MOL      0.078266
    163 H74         2.9510    0.8710    0.6740 hc        1 MOL      0.004188
    164 H75         3.2300   -0.8330    0.1460 hc        1 MOL      0.004188
    165 H76         3.5000   -0.1420   -2.1400 hc        1 MOL     -0.127482
    166 H77         3.0480    1.5440   -1.6390 hc        1 MOL     -0.127482
    167 N15         5.9440   -0.7680    1.8240 n         1 MOL     -0.160276
    168 C54         6.4900   -0.8230    3.1530 c3        1 MOL     -0.211948
    169 H78         5.9160   -1.5300    3.7520 h1        1 MOL      0.094154
    170 H79         7.5290   -1.1460    3.1070 h1        1 MOL      0.094154
    171 H80         6.4370    0.1660    3.6090 h1        1 MOL      0.094154
    172 H81         5.9310   -1.5300    1.1610 hn        1 MOL      0.144977
    173 Ca1        -1.5580    0.1450   -1.1350 Ca        1 MOL      1.759837
    174 O23        -1.1540   -2.3770   -2.1510 oh        1 MOL     -0.808545
    175 H82        -0.9770   -3.2320   -2.5530 ho        1 MOL      0.383561
    176 H83        -0.2890   -2.0170   -1.9840 ho        1 MOL      0.383561
    177 O24        -1.6080   -0.2300   -3.8970 oh        1 MOL     -0.808545
    178 H84        -2.0370   -0.8690   -4.4670 ho        1 MOL      0.383561
    179 H85        -2.1590    0.5510   -3.9790 ho        1 MOL      0.383561
@<TRIPOS>BOND
     1    1    2 1   
     2    1    4 1   
     3    1    5 1   
     4    1    6 1   
     5    2    3 2   
     6    2    7 1   
     7    7    8 1   
     8    7   15 1   
     9    8    9 1   
    10    8   11 1   
    11    8   16 1   
    12    9   10 2   
    13    9   19 1   
    14   11   12 1   
    15   11   17 1   
    16   11   18 1   
    17   12   13 1   
    18   12   14 1   
    19   19   20 1   
    20   19   28 1   
    21   20   21 1   
    22   20   23 1   
    23   20   29 1   
    24   21   22 2   
    25   21   41 1   
    26   23   24 1   
    27   23   30 1   
    28   23   31 1   
    29   24   25 1   
    30   24   32 1   
    31   24   33 1   
    32   25   26 1   
    33   25   34 1   
    34   25   35 1   
    35   26   27 1   
    36   26   36 1   
    37   26   37 1   
    38   27   38 1   
    39   27   39 1   
    40   27   40 1   
    41   41   42 1   
    42   41   49 1   
    43   42   43 1   
    44   42   45 1   
    45   42   50 1   
    46   43   44 2   
    47   43   53 1   
    48   45   46 1   
    49   45   51 1   
    50   45   52 1   
    51   46   47 1   
    52   46   48 1   
    53   53   54 1   
    54   53   57 1   
    55   54   55 1   
    56   54   58 1   
    57   54   59 1   
    58   55   56 2   
    59   55   60 1   
    60   60   61 1   
    61   60   68 1   
    62   61   62 1   
    63   61   64 1   
    64   61   69 1   
    65   62   63 2   
    66   62   74 1   
    67   64   65 1   
    68   64   70 1   
    69   64   71 1   
    70   65   66 1   
    71   65   67 2   
    72   66   72 1   
    73   66   73 1   
    74   74   75 1   
    75   74   78 1   
    76   75   76 1   
    77   75   79 1   
    78   75   80 1   
    79   76   77 2   
    80   76   81 1   
    81   81   82 1   
    82   81   93 1   
    83   82   83 1   
    84   82   85 1   
    85   82   94 1   
    86   83   84 2   
    87   83  102 1   
    88   85   86 1   
    89   85   95 1   
    90   85   96 1   
    91   86   87 ar  
    92   86   88 ar  
    93   87   89 ar  
    94   87   97 1   
    95   88   90 ar  
    96   88   98 1   
    97   89   91 ar  
    98   89   99 1   
    99   90   91 ar  
   100   90  100 1   
   101   91   92 1   
   102   92  101 1   
   103  102  103 1   
   104  102  110 1   
   105  103  104 1   
   106  103  106 1   
   107  103  111 1   
   108  104  105 2   
   109  104  121 1   
   110  106  107 1   
   111  106  108 1   
   112  106  112 1   
   113  107  109 1   
   114  107  113 1   
   115  107  114 1   
   116  108  115 1   
   117  108  116 1   
   118  108  117 1   
   119  109  118 1   
   120  109  119 1   
   121  109  120 1   
   122  121  122 1   
   123  121  127 1   
   124  122  123 1   
   125  122  125 1   
   126  122  128 1   
   127  123  124 2   
   128  123  132 1   
   129  125  126 1   
   130  125  129 1   
   131  125  130 1   
   132  126  131 1   
   133  132  133 1   
   134  132  137 1   
   135  133  134 1   
   136  133  136 1   
   137  133  138 1   
   138  134  135 2   
   139  134  142 1   
   140  136  139 1   
   141  136  140 1   
   142  136  141 1   
   143  142  143 1   
   144  142  147 1   
   145  143  144 1   
   146  143  146 1   
   147  143  148 1   
   148  144  145 2   
   149  144  152 1   
   150  146  149 1   
   151  146  150 1   
   152  146  151 1   
   153  152  153 1   
   154  152  161 1   
   155  153  154 1   
   156  153  156 1   
   157  153  162 1   
   158  154  155 2   
   159  154  167 1   
   160  156  157 1   
   161  156  163 1   
   162  156  164 1   
   163  157  158 1   
   164  157  165 1   
   165  157  166 1   
   166  158  159 1   
   167  158  160 1   
   168  167  168 1   
   169  167  172 1   
   170  168  169 1   
   171  168  170 1   
   172  168  171 1   
   173  174  175 1   
   174  174  176 1   
   175  177  178 1   
   176  177  179 1   
@<TRIPOS>SUBSTRUCTURE
     1 MOL         1 TEMP              0 ****  ****    0 ROOT
