@<TRIPOS>MOLECULE
MOL
  175   173     1     0     0
SMALL
resp


@<TRIPOS>ATOM
      1 C1         -0.2420   -3.6740    5.6730 c3        1 MOL     -0.405017
      2 C2          0.2400   -3.6040    4.2610 c         1 MOL      0.734274
      3 O1         -0.4840   -3.7750    3.2790 o         1 MOL     -0.558164
      4 H1         -0.8020   -4.5980    5.8200 hc        1 MOL      0.100572
      5 H2          0.6110   -3.6570    6.3510 hc        1 MOL      0.100572
      6 H3         -0.8880   -2.8210    5.8800 hc        1 MOL      0.100572
      7 N1          1.5440   -3.3570    4.0720 n         1 MOL     -0.631306
      8 C3          2.2080   -3.1790    2.7280 c3        1 MOL     -0.051839
      9 C4          2.3480   -4.5440    2.0760 c         1 MOL      0.722622
     10 O2          2.7440   -5.5190    2.7370 o         1 MOL     -0.590195
     11 C5          3.6130   -2.6100    2.9830 c3        1 MOL     -0.452224
     12 C6          4.2080   -2.0040    1.7660 c         1 MOL      0.877295
     13 O3          3.4950   -1.8370    0.7210 o         1 MOL     -0.674436
     14 O4          5.3540   -1.5310    1.9060 o         1 MOL     -0.674436
     15 H4          2.1930   -3.3280    4.8400 hn        1 MOL      0.347277
     16 H5          1.6000   -2.4840    2.1340 h1        1 MOL      0.153925
     17 H6          4.1470   -3.5130    3.2920 hc        1 MOL      0.108339
     18 H7          3.5300   -1.9050    3.7980 hc        1 MOL      0.108339
     19 N2          2.2640   -4.5510    0.7350 n         1 MOL     -0.543723
     20 C7          2.6830   -5.6680   -0.1090 c3        1 MOL      0.323372
     21 C8          3.7560   -5.3200   -1.1720 c         1 MOL      0.296835
     22 O5          4.1990   -6.2610   -1.8730 o         1 MOL     -0.558756
     23 C9          1.3510   -6.1760   -0.6650 c3        1 MOL     -0.297539
     24 H8          1.9550   -3.6840    0.3270 hn        1 MOL      0.262823
     25 H9          3.1180   -6.3940    0.5850 h1        1 MOL      0.010495
     26 H10         1.5130   -7.0380   -1.3120 hc        1 MOL      0.076648
     27 H11         0.6990   -6.3290    0.1950 hc        1 MOL      0.076648
     28 H12         0.9200   -5.4080   -1.3080 hc        1 MOL      0.076648
     29 N3          3.9560   -4.0670   -1.5070 n         1 MOL     -0.107779
     30 C10         4.7720   -3.5760   -2.6770 c3        1 MOL      0.057871
     31 C11         6.0840   -2.9390   -2.2070 c         1 MOL      0.343968
     32 O6          7.0060   -2.9840   -3.0590 o         1 MOL     -0.545370
     33 C12         4.0060   -2.5770   -3.5420 c3        1 MOL     -0.049538
     34 C13         3.2570   -1.5410   -2.7450 c         1 MOL      0.580119
     35 O7          2.0310   -1.3440   -2.7820 o         1 MOL     -0.659289
     36 O8          3.9610   -0.8060   -2.0080 o         1 MOL     -0.659289
     37 H13         3.5890   -3.3660   -0.8870 hn        1 MOL      0.153207
     38 H14         4.9390   -4.3230   -3.4520 h1        1 MOL      0.081886
     39 H15         3.2030   -3.0970   -4.0730 hc        1 MOL      0.022200
     40 H16         4.6440   -2.1610   -4.3260 hc        1 MOL      0.022200
     41 N4          6.1670   -2.3760   -0.9990 n         1 MOL     -0.118057
     42 C14         7.3450   -1.5920   -0.5540 c3        1 MOL     -0.189266
     43 C15         7.4130   -0.0980   -0.7860 c         1 MOL      0.536655
     44 O9          8.3920    0.6340   -0.4830 o         1 MOL     -0.612990
     45 H17         5.3670   -2.2330   -0.3900 hn        1 MOL      0.023053
     46 H18         8.2530   -1.9940   -1.0130 h1        1 MOL      0.107821
     47 H19         7.4420   -1.8220    0.5110 h1        1 MOL      0.107821
     48 N5          6.3490    0.4140   -1.4410 n         1 MOL     -0.267592
     49 C16         6.3020    1.7430   -2.0730 c3        1 MOL      0.115250
     50 C17         6.4150    2.9660   -1.1490 c         1 MOL      0.409498
     51 O10         6.6770    4.0760   -1.6060 o         1 MOL     -0.570845
     52 C18         5.1560    1.8860   -3.1880 c3        1 MOL     -0.344345
     53 C19         3.7260    1.9920   -2.6870 c         1 MOL      0.783581
     54 N6          2.7430    2.0930   -3.5520 n         1 MOL     -0.672441
     55 O11         3.4570    1.8640   -1.4920 o         1 MOL     -0.652078
     56 H20         5.6270   -0.2500   -1.7110 hn        1 MOL      0.228109
     57 H21         7.2120    1.8410   -2.6600 h1        1 MOL      0.051937
     58 H22         5.2490    0.9980   -3.8230 hc        1 MOL      0.093963
     59 H23         5.2910    2.7980   -3.7610 hc        1 MOL      0.093963
     60 H24         2.9630    1.9700   -4.5360 hn        1 MOL      0.319439
     61 H25         1.7880    2.1180   -3.2300 hn        1 MOL      0.319439
     62 N7          6.2160    2.8040    0.0930 n         1 MOL     -0.056285
     63 C20         6.2710    3.7790    1.1510 c3        1 MOL     -0.234035
     64 C21         4.9750    4.6360    1.3580 c         1 MOL      0.538807
     65 O12         4.9510    5.7250    1.9600 o         1 MOL     -0.571370
     66 H26         5.9350    1.8620    0.3550 hn        1 MOL      0.198181
     67 H27         7.0960    4.4840    0.9970 h1        1 MOL      0.099809
     68 H28         6.4680    3.2320    2.0650 h1        1 MOL      0.099809
     69 N8          3.8690    4.1100    0.7820 n         1 MOL     -0.182004
     70 C22         2.4990    4.6360    1.0160 c3        1 MOL     -0.238105
     71 C23         1.4400    3.5670    1.2090 c         1 MOL      0.524747
     72 O13         1.5160    2.5160    0.6410 o         1 MOL     -0.299930
     73 C24         1.9310    5.5410   -0.0810 c3        1 MOL      0.576413
     74 C25         2.6100    6.9110   -0.0970 c3        1 MOL     -0.566003
     75 O14         2.1580    4.8650   -1.3470 oh        1 MOL     -0.584893
     76 H29         3.9610    3.2390    0.2790 hn        1 MOL      0.146080
     77 H30         2.4980    5.1810    1.9590 h1        1 MOL      0.097325
     78 H31         0.8560    5.7430   -0.0400 h1        1 MOL     -0.013286
     79 H32         2.0980    3.9290   -1.1550 ho        1 MOL      0.257719
     80 H33         2.2020    7.5230   -0.9010 hc        1 MOL      0.137992
     81 H34         2.4620    7.3100    0.9060 hc        1 MOL      0.137992
     82 H35         3.6840    6.8300   -0.2540 hc        1 MOL      0.137992
     83 N9          0.3400    3.9480    1.7430 n         1 MOL     -0.611259
     84 C26        -0.9430    3.1460    1.8440 c3        1 MOL     -0.008443
     85 C27        -1.7520    3.2880    0.5470 c         1 MOL      0.533344
     86 O15        -1.9950    4.3680    0.0820 o         1 MOL     -0.560790
     87 C28        -1.9040    3.4800    2.9990 c3        1 MOL      0.245243
     88 C29        -1.1390    3.9100    4.3000 c3        1 MOL      0.004098
     89 C30        -2.9070    2.4120    3.2570 c3        1 MOL     -0.075378
     90 C31        -1.9670    4.4260    5.5560 c3        1 MOL     -0.123627
     91 H36         0.4550    4.8110    2.2560 hn        1 MOL      0.288387
     92 H37        -0.6720    2.1110    2.0450 h1        1 MOL      0.065460
     93 H38        -2.5650    4.3010    2.6830 hc        1 MOL     -0.047520
     94 H39        -0.4150    4.6860    4.0890 hc        1 MOL     -0.001225
     95 H40        -0.5960    3.0590    4.7110 hc        1 MOL     -0.001225
     96 H41        -2.4340    1.4890    3.5880 hc        1 MOL     -0.003348
     97 H42        -3.6480    2.7030    3.9970 hc        1 MOL     -0.003348
     98 H43        -3.5590    2.1870    2.4140 hc        1 MOL     -0.003348
     99 H44        -2.7200    3.6490    5.6990 hc        1 MOL      0.023694
    100 H45        -1.4060    4.5860    6.4730 hc        1 MOL      0.023694
    101 H46        -2.4310    5.3590    5.2520 hc        1 MOL      0.023694
    102 N10        -2.0960    2.1330    0.0120 n         1 MOL     -0.224225
    103 C32        -2.8470    1.8790   -1.2410 c3        1 MOL      0.027758
    104 C33        -4.3100    1.4500   -0.7960 c         1 MOL      0.409270
    105 O16        -4.5060    1.0490    0.3430 o         1 MOL     -0.283614
    106 C34        -2.0070    0.9020   -2.1700 c3        1 MOL     -0.344028
    107 C35        -0.6660    1.4240   -2.6670 c         1 MOL      0.802258
    108 O17         0.3600    1.2390   -2.0270 o         1 MOL     -0.692868
    109 O18        -0.6180    1.7030   -3.8920 o         1 MOL     -0.692868
    110 H47        -1.6640    1.3420    0.4640 hn        1 MOL      0.094320
    111 H48        -2.9060    2.7390   -1.9080 h1        1 MOL      0.068807
    112 H49        -2.5340    0.5900   -3.0680 hc        1 MOL      0.096441
    113 H50        -1.8750   -0.0290   -1.6380 hc        1 MOL      0.096441
    114 N11        -5.2440    1.5750   -1.7880 n         1 MOL     -0.633438
    115 C36        -6.6570    1.1890   -1.5330 c3        1 MOL      0.227685
    116 C37        -6.8880   -0.2630   -1.0750 c         1 MOL      0.618197
    117 O19        -7.4210   -0.3480   -0.0090 o         1 MOL     -0.587408
    118 C38        -7.4480    1.4710   -2.7520 c3        1 MOL      0.002904
    119 C39        -8.8980    1.2770   -2.5290 ca        1 MOL      0.010811
    120 C40        -9.6250    2.2940   -1.9310 ca        1 MOL     -0.169997
    121 C41        -9.4760   -0.0070   -2.6810 ca        1 MOL     -0.169997
    122 C42       -10.9400    2.0420   -1.5160 ca        1 MOL     -0.066369
    123 C43       -10.8170   -0.3090   -2.3250 ca        1 MOL     -0.066369
    124 C44       -11.5690    0.8010   -1.8070 ca        1 MOL     -0.169107
    125 H51        -5.0720    2.0070   -2.6820 hn        1 MOL      0.359711
    126 H52        -7.1090    1.7120   -0.6880 h1        1 MOL      0.034461
    127 H53        -7.1170    0.8250   -3.5620 hc        1 MOL      0.008943
    128 H54        -7.1690    2.4550   -3.1510 hc        1 MOL      0.008943
    129 H55        -9.2030    3.2840   -1.8510 ha        1 MOL      0.106693
    130 H56        -8.8910   -0.7860   -3.1430 ha        1 MOL      0.106693
    131 H57       -11.4490    2.8050   -0.9520 ha        1 MOL      0.108222
    132 H58       -11.3440   -1.2360   -2.5130 ha        1 MOL      0.108222
    133 H59       -12.6100    0.6820   -1.5270 ha        1 MOL      0.109887
    134 N12        -6.4070   -1.3680   -1.6610 n         1 MOL     -0.128294
    135 C45        -6.4780   -2.7100   -1.1390 c3        1 MOL     -0.044129
    136 C46        -5.6820   -2.8940    0.2260 c         1 MOL      0.278833
    137 O20        -5.9740   -3.8610    0.9720 o         1 MOL     -0.500439
    138 C47        -5.7960   -3.5040   -2.2400 c3        1 MOL     -0.130613
    139 C48        -4.8980   -2.5620   -2.9830 c3        1 MOL     -0.022578
    140 C49        -5.7200   -1.3490   -2.9730 c3        1 MOL      0.018765
    141 H60        -7.5410   -2.9390   -1.0960 h1        1 MOL      0.078628
    142 H61        -5.3480   -4.4220   -1.8720 hc        1 MOL      0.069399
    143 H62        -6.5610   -3.7860   -2.9550 hc        1 MOL      0.069399
    144 H63        -3.9390   -2.4270   -2.4850 hc        1 MOL      0.034342
    145 H64        -4.7740   -2.9440   -3.9980 hc        1 MOL      0.034342
    146 H65        -5.1070   -0.4850   -3.2010 h1        1 MOL      0.005517
    147 H66        -6.4610   -1.4890   -3.7580 h1        1 MOL      0.005517
    148 N13        -4.7120   -2.0750    0.5310 n         1 MOL     -0.048857
    149 C50        -3.9630   -2.0860    1.8330 c3        1 MOL     -0.005753
    150 C51        -4.7810   -1.3140    2.9160 c         1 MOL      0.347514
    151 O21        -4.9700   -1.8230    4.0270 o         1 MOL     -0.558193
    152 C52        -2.5790   -1.3900    1.7180 c3        1 MOL     -0.033754
    153 C53        -1.7740   -2.1860    0.7120 c3        1 MOL     -0.198677
    154 C54        -0.4190   -1.4490    0.4620 c         1 MOL      0.609065
    155 O22         0.4980   -2.0170   -0.1610 o         1 MOL     -0.677656
    156 O23        -0.2310   -0.2480    0.8100 o         1 MOL     -0.677656
    157 H67        -4.6270   -1.2210    0.0150 hn        1 MOL      0.164583
    158 H68        -3.8890   -3.0830    2.2700 h1        1 MOL      0.107486
    159 H69        -2.1180   -1.5070    2.6910 hc        1 MOL      0.044702
    160 H70        -2.6340   -0.3490    1.4000 hc        1 MOL      0.044702
    161 H71        -2.3340   -2.1950   -0.2220 hc        1 MOL      0.072348
    162 H72        -1.5400   -3.1700    1.1130 hc        1 MOL      0.072348
    163 N14        -5.5560   -0.3150    2.5780 n         1 MOL     -0.005989
    164 C55        -6.5160    0.4590    3.5210 c3        1 MOL     -0.207843
    165 H73        -6.7010   -0.1350    4.4170 h1        1 MOL      0.088785
    166 H74        -6.0630    1.4090    3.8030 h1        1 MOL      0.088785
    167 H75        -7.4600    0.6440    3.0080 h1        1 MOL      0.088785
    168 H76        -5.4510    0.0880    1.6540 hn        1 MOL      0.025419
    169 Ca1         2.0550    0.0380   -0.4340 Ca        1 MOL      1.669934
    170 O24         4.1810    0.9770    1.4920 oh        1 MOL     -0.891202
    171 H77         4.7160    0.1810    1.5690 ho        1 MOL      0.419869
    172 H78         3.5610    0.9200    2.2140 ho        1 MOL      0.419869
    173 O25         1.9040    0.2480    2.5760 oh        1 MOL     -0.891202
    174 H79         2.1790   -0.1870    3.3840 ho        1 MOL      0.419869
    175 H80         0.9700    0.0180    2.4930 ho        1 MOL      0.419869
@<TRIPOS>BOND
     1    1    2 1   
     2    1    4 1   
     3    1    5 1   
     4    1    6 1   
     5    2    3 2   
     6    2    7 1   
     7    7    8 1   
     8    7   15 1   
     9    8    9 1   
    10    8   11 1   
    11    8   16 1   
    12    9   10 2   
    13    9   19 1   
    14   11   12 1   
    15   11   17 1   
    16   11   18 1   
    17   12   13 1   
    18   12   14 1   
    19   19   20 1   
    20   19   24 1   
    21   20   21 1   
    22   20   23 1   
    23   20   25 1   
    24   21   22 2   
    25   21   29 1   
    26   23   26 1   
    27   23   27 1   
    28   23   28 1   
    29   29   30 1   
    30   29   37 1   
    31   30   31 1   
    32   30   33 1   
    33   30   38 1   
    34   31   32 2   
    35   31   41 1   
    36   33   34 1   
    37   33   39 1   
    38   33   40 1   
    39   34   35 1   
    40   34   36 1   
    41   41   42 1   
    42   41   45 1   
    43   42   43 1   
    44   42   46 1   
    45   42   47 1   
    46   43   44 2   
    47   43   48 1   
    48   48   49 1   
    49   48   56 1   
    50   49   50 1   
    51   49   52 1   
    52   49   57 1   
    53   50   51 2   
    54   50   62 1   
    55   52   53 1   
    56   52   58 1   
    57   52   59 1   
    58   53   54 1   
    59   53   55 2   
    60   54   60 1   
    61   54   61 1   
    62   62   63 1   
    63   62   66 1   
    64   63   64 1   
    65   63   67 1   
    66   63   68 1   
    67   64   65 2   
    68   64   69 1   
    69   69   70 1   
    70   69   76 1   
    71   70   71 1   
    72   70   73 1   
    73   70   77 1   
    74   71   72 2   
    75   71   83 1   
    76   73   74 1   
    77   73   75 1   
    78   73   78 1   
    79   74   80 1   
    80   74   81 1   
    81   74   82 1   
    82   75   79 1   
    83   83   84 1   
    84   83   91 1   
    85   84   85 1   
    86   84   87 1   
    87   84   92 1   
    88   85   86 2   
    89   85  102 1   
    90   87   88 1   
    91   87   89 1   
    92   87   93 1   
    93   88   90 1   
    94   88   94 1   
    95   88   95 1   
    96   89   96 1   
    97   89   97 1   
    98   89   98 1   
    99   90   99 1   
   100   90  100 1   
   101   90  101 1   
   102  102  103 1   
   103  102  110 1   
   104  103  104 1   
   105  103  106 1   
   106  103  111 1   
   107  104  105 2   
   108  104  114 1   
   109  106  107 1   
   110  106  112 1   
   111  106  113 1   
   112  107  108 1   
   113  107  109 1   
   114  114  115 1   
   115  114  125 1   
   116  115  116 1   
   117  115  118 1   
   118  115  126 1   
   119  116  117 2   
   120  116  134 1   
   121  118  119 1   
   122  118  127 1   
   123  118  128 1   
   124  119  120 ar  
   125  119  121 ar  
   126  120  122 ar  
   127  120  129 1   
   128  121  123 ar  
   129  121  130 1   
   130  122  124 ar  
   131  122  131 1   
   132  123  124 ar  
   133  123  132 1   
   134  124  133 1   
   135  134  135 1   
   136  134  140 1   
   137  135  136 1   
   138  135  138 1   
   139  135  141 1   
   140  136  137 2   
   141  136  148 1   
   142  138  139 1   
   143  138  142 1   
   144  138  143 1   
   145  139  140 1   
   146  139  144 1   
   147  139  145 1   
   148  140  146 1   
   149  140  147 1   
   150  148  149 1   
   151  148  157 1   
   152  149  150 1   
   153  149  152 1   
   154  149  158 1   
   155  150  151 2   
   156  150  163 1   
   157  152  153 1   
   158  152  159 1   
   159  152  160 1   
   160  153  154 1   
   161  153  161 1   
   162  153  162 1   
   163  154  155 1   
   164  154  156 1   
   165  163  164 1   
   166  163  168 1   
   167  164  165 1   
   168  164  166 1   
   169  164  167 1   
   170  170  171 1   
   171  170  172 1   
   172  173  174 1   
   173  173  175 1   
@<TRIPOS>SUBSTRUCTURE
     1 MOL         1 TEMP              0 ****  ****    0 ROOT
