@<TRIPOS>MOLECULE
MOL
  179   176     1     0     0
SMALL
resp


@<TRIPOS>ATOM
      1 C1          2.5390    2.9610    4.9820 c3        1 MOL     -0.451599
      2 C2          1.7790    2.6550    3.6500 c         1 MOL      0.645195
      3 O1          2.3950    2.7140    2.5850 o         1 MOL     -0.597338
      4 H1          3.6000    3.0950    4.7720 hc        1 MOL      0.123689
      5 H2          2.1400    3.8720    5.4280 hc        1 MOL      0.123689
      6 H3          2.4080    2.1290    5.6740 hc        1 MOL      0.123689
      7 N1          0.4960    2.4630    3.6720 n         1 MOL     -0.453973
      8 C3         -0.3060    2.3840    2.4520 c3        1 MOL      0.118190
      9 C4         -0.7240    3.8290    2.1570 c         1 MOL      0.404048
     10 O2         -1.4330    4.4010    2.9100 o         1 MOL     -0.487300
     11 C5         -1.5640    1.4900    2.7190 c3        1 MOL     -0.303717
     12 C6         -2.5800    1.3510    1.4950 c         1 MOL      0.755213
     13 O3         -3.7550    1.0890    1.8160 o         1 MOL     -0.699659
     14 O4         -2.2120    1.4860    0.2990 o         1 MOL     -0.699659
     15 H4         -0.0720    2.5180    4.5020 hn        1 MOL      0.298712
     16 H5          0.2590    2.0450    1.5910 h1        1 MOL     -0.006008
     17 H6         -2.0350    1.9050    3.6030 hc        1 MOL      0.092469
     18 H7         -1.1440    0.5110    2.9430 hc        1 MOL      0.092469
     19 N2         -0.3230    4.4530    0.9960 n         1 MOL     -0.353891
     20 C7         -0.6240    5.9350    0.5740 c3        1 MOL      0.018190
     21 C8         -1.7610    6.0430   -0.4690 c         1 MOL      0.352317
     22 O5         -2.3690    7.1230   -0.5770 o         1 MOL     -0.527056
     23 C9          0.6060    6.5700    0.0460 c3        1 MOL      0.024402
     24 C10         1.7530    6.4800    1.1350 c3        1 MOL      0.240874
     25 C11         2.9750    7.1730    0.5950 c3        1 MOL     -0.347853
     26 C12         3.5120    6.7680   -0.8060 c3        1 MOL     -0.074949
     27 N3          3.8330    5.2700   -0.8120 n4        1 MOL     -0.239529
     28 H8          0.3650    3.9710    0.4480 hn        1 MOL      0.312434
     29 H9         -0.9510    6.5230    1.4330 h1        1 MOL      0.104733
     30 H10         0.4840    7.5980   -0.2850 hc        1 MOL     -0.003251
     31 H11         0.9540    6.0490   -0.8550 hc        1 MOL     -0.003251
     32 H12         2.0560    5.4340    1.1540 hc        1 MOL     -0.019942
     33 H13         1.4400    6.8490    2.1080 hc        1 MOL     -0.019942
     34 H14         3.8070    7.0410    1.2820 hc        1 MOL      0.131532
     35 H15         2.6830    8.2230    0.5660 hc        1 MOL      0.131532
     36 H16         4.4210    7.3040   -1.0700 hx        1 MOL      0.124336
     37 H17         2.9180    6.9670   -1.6950 hx        1 MOL      0.124336
     38 H18         4.2520    5.1150   -1.7150 hn        1 MOL      0.300008
     39 H19         4.4840    5.0100   -0.0740 hn        1 MOL      0.300008
     40 H20         3.0170    4.6710   -0.8170 hn        1 MOL      0.300008
     41 N4         -2.0930    4.9460   -1.1860 n         1 MOL     -0.076600
     42 C13        -3.1680    4.8650   -2.1900 c3        1 MOL     -0.201363
     43 C14        -4.4460    4.4500   -1.6590 c         1 MOL      0.471627
     44 O6         -5.4840    4.4960   -2.3310 o         1 MOL     -0.540350
     45 C15        -2.6920    3.9460   -3.3280 c3        1 MOL     -0.085057
     46 C16        -2.2200    2.6040   -2.8310 c         1 MOL      0.676224
     47 O7         -1.0590    2.3830   -2.4610 o         1 MOL     -0.758039
     48 O8         -3.0960    1.7720   -2.6960 o         1 MOL     -0.758039
     49 H21        -1.5440    4.1170   -1.0580 hn        1 MOL      0.067439
     50 H22        -3.2800    5.8430   -2.6670 h1        1 MOL      0.147973
     51 H23        -1.9200    4.4740   -3.8890 hc        1 MOL      0.049349
     52 H24        -3.4640    3.8580   -4.0870 hc        1 MOL      0.049349
     53 N5         -4.5360    4.0230   -0.4130 n         1 MOL     -0.099925
     54 C17        -5.7040    3.6100    0.2360 c3        1 MOL     -0.454359
     55 C18        -6.3700    2.2360   -0.1370 c         1 MOL      0.735974
     56 O9         -7.4730    2.0110    0.3450 o         1 MOL     -0.568471
     57 H25        -3.7260    4.1570    0.1650 hn        1 MOL      0.272922
     58 H26        -6.4590    4.3840    0.0730 h1        1 MOL      0.152537
     59 H27        -5.3610    3.4950    1.2660 h1        1 MOL      0.152537
     60 N6         -5.7150    1.3990   -1.0260 n         1 MOL     -0.323952
     61 C19        -6.2740    0.1490   -1.3820 c3        1 MOL     -0.173977
     62 C20        -6.4630   -0.8670   -0.2320 c         1 MOL      0.317666
     63 O10        -7.1440   -1.8740   -0.3990 o         1 MOL     -0.489852
     64 C21        -5.5770   -0.5490   -2.5250 c3        1 MOL     -0.118195
     65 C22        -4.1890   -1.1690   -2.3440 c         1 MOL      0.672989
     66 N7         -3.7600   -1.8330   -3.3770 n         1 MOL     -0.697272
     67 O11        -3.5580   -1.1680   -1.2420 o         1 MOL     -0.482225
     68 H28        -4.7580    1.6200   -1.2790 hn        1 MOL      0.238985
     69 H29        -7.3010    0.3630   -1.6730 h1        1 MOL      0.146891
     70 H30        -5.4370    0.1100   -3.3770 hc        1 MOL      0.075787
     71 H31        -6.2140   -1.3310   -2.9290 hc        1 MOL      0.075787
     72 H32        -4.3380   -1.8540   -4.2110 hn        1 MOL      0.331615
     73 H33        -2.8980   -2.3480   -3.3600 hn        1 MOL      0.331615
     74 N8         -5.9290   -0.6790    0.9570 n         1 MOL     -0.049709
     75 C23        -5.9430   -1.6310    2.1240 c3        1 MOL     -0.237931
     76 C24        -4.8760   -2.6890    2.2030 c         1 MOL      0.622547
     77 O12        -5.0220   -3.6720    2.8490 o         1 MOL     -0.542123
     78 H34        -5.5140    0.2260    1.1180 hn        1 MOL      0.197132
     79 H35        -6.9500   -2.0520    2.0720 h1        1 MOL      0.107309
     80 H36        -5.9180   -0.9830    3.0120 h1        1 MOL      0.107309
     81 N9         -3.7670   -2.4170    1.4580 n         1 MOL     -0.258412
     82 C25        -2.5800   -3.3560    1.4340 c3        1 MOL      0.005290
     83 C26        -1.3000   -2.6210    1.3160 c         1 MOL      0.471815
     84 O13        -1.2070   -1.6740    0.4970 o         1 MOL     -0.569442
     85 C27        -2.6010   -4.2830    0.1810 c3        1 MOL      0.274114
     86 C28        -3.8770   -5.0070   -0.0670 ca        1 MOL     -0.093245
     87 C29        -4.7120   -4.8520   -1.1950 ca        1 MOL     -0.174463
     88 C30        -4.3710   -5.8280    0.9280 ca        1 MOL     -0.174463
     89 C31        -5.9480   -5.6080   -1.3920 ca        1 MOL     -0.220452
     90 C32        -5.6320   -6.4910    0.8330 ca        1 MOL     -0.220452
     91 C33        -6.3830   -6.4230   -0.3580 ca        1 MOL      0.357062
     92 O14        -7.4580   -7.2600   -0.4490 oh        1 MOL     -0.508400
     93 H37        -3.6250   -1.5870    0.9060 hn        1 MOL      0.094570
     94 H38        -2.6110   -4.0080    2.3140 h1        1 MOL      0.051150
     95 H39        -1.8100   -5.0340    0.2660 hc        1 MOL     -0.049317
     96 H40        -2.4050   -3.6470   -0.6830 hc        1 MOL     -0.049317
     97 H41        -4.3730   -4.2150   -1.9990 ha        1 MOL      0.126067
     98 H42        -3.7970   -6.0270    1.8290 ha        1 MOL      0.126067
     99 H43        -6.5320   -5.4890   -2.2940 ha        1 MOL      0.134440
    100 H44        -5.8630   -7.2660    1.5440 ha        1 MOL      0.134440
    101 H45        -7.5190   -7.7210    0.3930 ho        1 MOL      0.362823
    102 N10        -0.2520   -3.0640    2.0180 n         1 MOL     -0.509351
    103 C34         1.1190   -2.5400    1.9610 c3        1 MOL      0.199062
    104 C35         1.8470   -3.5970    1.0940 c         1 MOL      0.386213
    105 O15         1.7740   -4.8250    1.2800 o         1 MOL     -0.546628
    106 C36         1.7200   -2.4430    3.4240 c3        1 MOL      0.039366
    107 C37         0.8770   -1.4040    4.2440 c3        1 MOL      0.245905
    108 C38         3.1720   -1.9210    3.2040 c3        1 MOL     -0.167185
    109 C39         1.1660   -1.4300    5.7820 c3        1 MOL     -0.337077
    110 H46        -0.2950   -3.8620    2.6240 hn        1 MOL      0.298957
    111 H47         1.1760   -1.5810    1.4630 h1        1 MOL      0.091653
    112 H48         1.7330   -3.4110    3.9180 hc        1 MOL      0.024671
    113 H49        -0.1650   -1.6730    4.1190 hc        1 MOL     -0.050170
    114 H50         0.9100   -0.3840    3.8400 hc        1 MOL     -0.050170
    115 H51         3.6620   -2.6420    2.5570 hc        1 MOL      0.033325
    116 H52         3.1700   -0.9670    2.6670 hc        1 MOL      0.033325
    117 H53         3.7290   -1.7880    4.1280 hc        1 MOL      0.033325
    118 H54         2.1780   -1.0430    5.9300 hc        1 MOL      0.078493
    119 H55         0.5210   -0.6690    6.2060 hc        1 MOL      0.078493
    120 H56         0.9120   -2.3530    6.2880 hc        1 MOL      0.078493
    121 N11         2.6150   -3.0910    0.1700 n         1 MOL      0.035041
    122 C40         3.5620   -3.7900   -0.6680 c3        1 MOL      0.035399
    123 C41         5.0320   -3.3900   -0.1690 c         1 MOL      0.355089
    124 O16         5.3090   -2.3800    0.4600 o         1 MOL     -0.239292
    125 C42         3.3770   -3.3570   -2.1120 c3        1 MOL     -0.042985
    126 O17         3.6340   -1.9570   -2.2640 oh        1 MOL     -0.425640
    127 H57         2.7190   -2.0850    0.1540 hn        1 MOL     -0.231885
    128 H58         3.3970   -4.8610   -0.5290 h1        1 MOL      0.067763
    129 H59         2.3490   -3.6160   -2.3830 h1        1 MOL      0.060965
    130 H60         4.0570   -3.9690   -2.7030 h1        1 MOL      0.060965
    131 H61         2.7640   -1.6120   -2.0320 ho        1 MOL      0.312084
    132 N12         6.0630   -4.2910   -0.5550 n         1 MOL     -0.488339
    133 C43         7.4920   -3.9070   -0.3920 c3        1 MOL      0.172502
    134 C44         7.8860   -2.6250   -1.0670 c         1 MOL      0.420023
    135 O18         8.7320   -1.8470   -0.5700 o         1 MOL     -0.510679
    136 C45         8.1690   -5.0730   -0.9880 c3        1 MOL     -0.271688
    137 H62         5.8140   -5.1610   -1.0080 hn        1 MOL      0.310363
    138 H63         7.7330   -3.8250    0.6720 h1        1 MOL      0.080517
    139 H64         7.9700   -5.9560   -0.3760 hc        1 MOL      0.079845
    140 H65         7.6890   -5.2980   -1.9420 hc        1 MOL      0.079845
    141 H66         9.2240   -4.8980   -1.1980 hc        1 MOL      0.079845
    142 N13         7.1830   -2.3040   -2.1410 n         1 MOL     -0.302835
    143 C46         7.4040   -1.1360   -2.9550 c3        1 MOL      0.093991
    144 C47         7.1320    0.1520   -2.1420 c         1 MOL      0.404863
    145 O19         7.9890    1.0310   -2.1210 o         1 MOL     -0.510109
    146 C48         6.6310   -1.2800   -4.2260 c3        1 MOL     -0.208120
    147 H67         6.5710   -3.0590   -2.4230 hn        1 MOL      0.247433
    148 H68         8.4430   -1.1260   -3.2870 h1        1 MOL      0.077784
    149 H69         6.8340   -0.4100   -4.8570 hc        1 MOL      0.060605
    150 H70         6.8790   -2.1960   -4.7580 hc        1 MOL      0.060605
    151 H71         5.5990   -1.3790   -3.9120 hc        1 MOL      0.060605
    152 N14         5.9230    0.2820   -1.5660 n         1 MOL     -0.101842
    153 C49         5.4540    1.3050   -0.6450 c3        1 MOL     -0.101289
    154 C50         5.9710    1.2300    0.7480 c         1 MOL      0.528368
    155 O20         6.0490    2.2250    1.3900 o         1 MOL     -0.561563
    156 C51         3.9160    1.4290   -0.7050 c3        1 MOL     -0.145136
    157 C52         3.0860    0.2900    0.0150 c3        1 MOL      0.173899
    158 C53         1.6990    0.1850   -0.5750 c         1 MOL      0.697191
    159 O21         1.4230   -0.7380   -1.3500 o         1 MOL     -0.712070
    160 O22         0.8620    1.0610   -0.3170 o         1 MOL     -0.712070
    161 H72         5.3150   -0.5020   -1.7610 hn        1 MOL      0.064521
    162 H73         5.8220    2.2160   -1.1340 h1        1 MOL      0.055353
    163 H74         3.5340    1.3760   -1.7190 hc        1 MOL      0.022115
    164 H75         3.5050    2.3690   -0.3460 hc        1 MOL      0.022115
    165 H76         3.0040    0.4490    1.0880 hc        1 MOL      0.015889
    166 H77         3.6000   -0.6790   -0.0100 hc        1 MOL      0.015889
    167 N15         6.2400    0.0540    1.2840 n         1 MOL     -0.026383
    168 C54         6.9290   -0.0270    2.5710 c3        1 MOL     -0.288923
    169 H78         7.9930    0.1530    2.4240 h1        1 MOL      0.110293
    170 H79         6.5240    0.7260    3.2470 h1        1 MOL      0.110293
    171 H80         6.7830   -1.0180    3.0000 h1        1 MOL      0.110293
    172 H81         5.9420   -0.8250    0.8720 hn        1 MOL      0.010707
    173 Ca1        -1.2590    0.0490   -1.4340 Ca        1 MOL      1.749121
    174 O23        -0.4310   -2.3930   -2.2310 oh        1 MOL     -0.841148
    175 H82        -0.3810   -3.3440   -2.3320 ho        1 MOL      0.410777
    176 H83         0.4750   -2.1050   -2.2230 ho        1 MOL      0.410777
    177 O24        -1.1340   -0.3380   -4.1910 oh        1 MOL     -0.841148
    178 H84        -0.2880   -0.1020   -4.5880 ho        1 MOL      0.410777
    179 H85        -1.7370   -0.3820   -4.9340 ho        1 MOL      0.410777
@<TRIPOS>BOND
     1    1    2 1   
     2    1    4 1   
     3    1    5 1   
     4    1    6 1   
     5    2    3 2   
     6    2    7 1   
     7    7    8 1   
     8    7   15 1   
     9    8    9 1   
    10    8   11 1   
    11    8   16 1   
    12    9   10 2   
    13    9   19 1   
    14   11   12 1   
    15   11   17 1   
    16   11   18 1   
    17   12   13 1   
    18   12   14 1   
    19   19   20 1   
    20   19   28 1   
    21   20   21 1   
    22   20   23 1   
    23   20   29 1   
    24   21   22 2   
    25   21   41 1   
    26   23   24 1   
    27   23   30 1   
    28   23   31 1   
    29   24   25 1   
    30   24   32 1   
    31   24   33 1   
    32   25   26 1   
    33   25   34 1   
    34   25   35 1   
    35   26   27 1   
    36   26   36 1   
    37   26   37 1   
    38   27   38 1   
    39   27   39 1   
    40   27   40 1   
    41   41   42 1   
    42   41   49 1   
    43   42   43 1   
    44   42   45 1   
    45   42   50 1   
    46   43   44 2   
    47   43   53 1   
    48   45   46 1   
    49   45   51 1   
    50   45   52 1   
    51   46   47 1   
    52   46   48 1   
    53   53   54 1   
    54   53   57 1   
    55   54   55 1   
    56   54   58 1   
    57   54   59 1   
    58   55   56 2   
    59   55   60 1   
    60   60   61 1   
    61   60   68 1   
    62   61   62 1   
    63   61   64 1   
    64   61   69 1   
    65   62   63 2   
    66   62   74 1   
    67   64   65 1   
    68   64   70 1   
    69   64   71 1   
    70   65   66 1   
    71   65   67 2   
    72   66   72 1   
    73   66   73 1   
    74   74   75 1   
    75   74   78 1   
    76   75   76 1   
    77   75   79 1   
    78   75   80 1   
    79   76   77 2   
    80   76   81 1   
    81   81   82 1   
    82   81   93 1   
    83   82   83 1   
    84   82   85 1   
    85   82   94 1   
    86   83   84 2   
    87   83  102 1   
    88   85   86 1   
    89   85   95 1   
    90   85   96 1   
    91   86   87 ar  
    92   86   88 ar  
    93   87   89 ar  
    94   87   97 1   
    95   88   90 ar  
    96   88   98 1   
    97   89   91 ar  
    98   89   99 1   
    99   90   91 ar  
   100   90  100 1   
   101   91   92 1   
   102   92  101 1   
   103  102  103 1   
   104  102  110 1   
   105  103  104 1   
   106  103  106 1   
   107  103  111 1   
   108  104  105 2   
   109  104  121 1   
   110  106  107 1   
   111  106  108 1   
   112  106  112 1   
   113  107  109 1   
   114  107  113 1   
   115  107  114 1   
   116  108  115 1   
   117  108  116 1   
   118  108  117 1   
   119  109  118 1   
   120  109  119 1   
   121  109  120 1   
   122  121  122 1   
   123  121  127 1   
   124  122  123 1   
   125  122  125 1   
   126  122  128 1   
   127  123  124 2   
   128  123  132 1   
   129  125  126 1   
   130  125  129 1   
   131  125  130 1   
   132  126  131 1   
   133  132  133 1   
   134  132  137 1   
   135  133  134 1   
   136  133  136 1   
   137  133  138 1   
   138  134  135 2   
   139  134  142 1   
   140  136  139 1   
   141  136  140 1   
   142  136  141 1   
   143  142  143 1   
   144  142  147 1   
   145  143  144 1   
   146  143  146 1   
   147  143  148 1   
   148  144  145 2   
   149  144  152 1   
   150  146  149 1   
   151  146  150 1   
   152  146  151 1   
   153  152  153 1   
   154  152  161 1   
   155  153  154 1   
   156  153  156 1   
   157  153  162 1   
   158  154  155 2   
   159  154  167 1   
   160  156  157 1   
   161  156  163 1   
   162  156  164 1   
   163  157  158 1   
   164  157  165 1   
   165  157  166 1   
   166  158  159 1   
   167  158  160 1   
   168  167  168 1   
   169  167  172 1   
   170  168  169 1   
   171  168  170 1   
   172  168  171 1   
   173  174  175 1   
   174  174  176 1   
   175  177  178 1   
   176  177  179 1   
@<TRIPOS>SUBSTRUCTURE
     1 MOL         1 TEMP              0 ****  ****    0 ROOT
