@<TRIPOS>MOLECULE
MOL
  175   173     1     0     0
SMALL
resp


@<TRIPOS>ATOM
      1 C1          0.6810    4.8200    5.2500 c3        1 MOL     -0.485051
      2 C2          0.2050    4.5230    3.8540 c         1 MOL      0.731028
      3 O1          0.9480    4.6730    2.8940 o         1 MOL     -0.547857
      4 H1          0.8290    5.8940    5.3620 hc        1 MOL      0.118128
      5 H2         -0.0640    4.4790    5.9690 hc        1 MOL      0.118128
      6 H3          1.6240    4.3030    5.4310 hc        1 MOL      0.118128
      7 N1         -1.0000    4.0440    3.7200 n         1 MOL     -0.590934
      8 C3         -1.6580    3.7020    2.3890 c3        1 MOL      0.013674
      9 C4         -1.8530    4.8880    1.4480 c         1 MOL      0.630821
     10 O2         -1.8320    6.0290    1.9400 o         1 MOL     -0.548483
     11 C5         -3.0320    3.1410    2.7580 c3        1 MOL     -0.302709
     12 C6         -3.7230    2.5060    1.5030 c         1 MOL      0.696318
     13 O3         -4.9350    2.3130    1.6230 o         1 MOL     -0.642218
     14 O4         -3.0850    2.2180    0.4910 o         1 MOL     -0.642218
     15 H4         -1.5600    3.9810    4.5540 hn        1 MOL      0.330498
     16 H5         -1.0670    2.9140    1.9330 h1        1 MOL      0.134149
     17 H6         -3.6930    3.8720    3.2240 hc        1 MOL      0.071111
     18 H7         -2.9380    2.3470    3.5040 hc        1 MOL      0.071111
     19 N2         -1.8580    4.5770    0.1150 n         1 MOL     -0.640217
     20 C7         -2.0120    5.6580   -0.8440 c3        1 MOL      0.457790
     21 C8         -3.0100    5.1310   -1.9240 c         1 MOL      0.344250
     22 O5         -3.3780    5.9030   -2.8100 o         1 MOL     -0.564402
     23 C9         -0.6300    5.9110   -1.5070 c3        1 MOL     -0.447278
     24 H8         -1.9790    3.6130   -0.1490 hn        1 MOL      0.345791
     25 H9         -2.4550    6.5010   -0.3240 h1        1 MOL     -0.013969
     26 H10         0.1530    5.7720   -0.7630 hc        1 MOL      0.118143
     27 H11        -0.5450    5.1900   -2.3150 hc        1 MOL      0.118143
     28 H12        -0.5160    6.9580   -1.7860 hc        1 MOL      0.118143
     29 N3         -3.5100    3.8750   -1.8940 n         1 MOL     -0.376731
     30 C10        -4.2780    3.3320   -2.9840 c3        1 MOL      0.341734
     31 C11        -5.5480    2.5490   -2.5240 c         1 MOL      0.256500
     32 O6         -6.3890    2.2890   -3.4070 o         1 MOL     -0.534160
     33 C12        -3.3690    2.4950   -3.9490 c3        1 MOL     -0.332854
     34 C13        -2.6900    1.2900   -3.3310 c         1 MOL      0.729102
     35 O7         -3.1820    0.7860   -2.2880 o         1 MOL     -0.663108
     36 O8         -1.5930    0.9010   -3.7930 o         1 MOL     -0.663108
     37 H13        -3.1950    3.2150   -1.1960 hn        1 MOL      0.211255
     38 H14        -4.7530    4.0920   -3.5990 h1        1 MOL      0.037043
     39 H15        -2.6500    3.2430   -4.2980 hc        1 MOL      0.067284
     40 H16        -3.9870    2.1820   -4.7870 hc        1 MOL      0.067284
     41 N4         -5.6990    2.1260   -1.2800 n         1 MOL     -0.096168
     42 C14        -7.0010    1.6160   -0.8710 c3        1 MOL     -0.253808
     43 C15        -7.2050    0.1820   -1.2640 c         1 MOL      0.533512
     44 O9         -8.3440   -0.2680   -1.2690 o         1 MOL     -0.623087
     45 H17        -4.9730    2.0700   -0.5700 hn        1 MOL      0.056778
     46 H18        -7.7830    2.2480   -1.2850 h1        1 MOL      0.129016
     47 H19        -7.1040    1.6610    0.2120 h1        1 MOL      0.129016
     48 N5         -6.1790   -0.4950   -1.7410 n         1 MOL     -0.275249
     49 C16        -6.2960   -1.9410   -2.2370 c3        1 MOL      0.043202
     50 C17        -6.3460   -3.0330   -1.1220 c         1 MOL      0.409674
     51 O10        -6.2280   -4.2320   -1.4660 o         1 MOL     -0.519560
     52 C18        -5.1570   -2.2120   -3.2490 c3        1 MOL     -0.225178
     53 C19        -3.7770   -2.1470   -2.4800 c         1 MOL      0.518814
     54 N6         -2.7190   -2.1660   -3.2800 n         1 MOL     -0.654436
     55 O11        -3.6440   -2.0610   -1.2710 o         1 MOL     -0.302718
     56 H20        -5.3550    0.0600   -1.8880 hn        1 MOL      0.262924
     57 H21        -7.3000   -1.9870   -2.6710 h1        1 MOL      0.097508
     58 H22        -5.0540   -1.4300   -4.0030 hc        1 MOL      0.068875
     59 H23        -5.3220   -3.1830   -3.7160 hc        1 MOL      0.068875
     60 H24        -2.8220   -2.2060   -4.2820 hn        1 MOL      0.338658
     61 H25        -1.7800   -2.1010   -2.9230 hn        1 MOL      0.338658
     62 N7         -6.6440   -2.6330    0.1100 n         1 MOL     -0.251531
     63 C20        -6.8960   -3.5300    1.3480 c3        1 MOL     -0.150805
     64 C21        -5.5960   -4.1060    1.9360 c         1 MOL      0.415470
     65 O12        -5.5630   -5.0550    2.7160 o         1 MOL     -0.545527
     66 H26        -6.9430   -1.6780    0.1900 hn        1 MOL      0.216051
     67 H27        -7.6150   -4.3090    1.0730 h1        1 MOL      0.119677
     68 H28        -7.3900   -2.9380    2.1200 h1        1 MOL      0.119677
     69 N8         -4.3760   -3.7390    1.4330 n         1 MOL      0.055159
     70 C22        -3.0410   -4.3140    1.7050 c3        1 MOL     -0.254588
     71 C23        -1.8850   -3.3310    1.8000 c         1 MOL      0.574374
     72 O13        -2.0590   -2.2110    1.2350 o         1 MOL     -0.560994
     73 C24        -2.6530   -5.4350    0.8050 c3        1 MOL      0.447713
     74 C25        -3.6100   -6.6040    0.8130 c3        1 MOL     -0.647481
     75 O14        -2.5750   -5.0380   -0.5750 oh        1 MOL     -0.551962
     76 H29        -4.3170   -2.9010    0.8810 hn        1 MOL     -0.074061
     77 H30        -3.1780   -4.7340    2.7060 h1        1 MOL      0.081293
     78 H31        -1.6200   -5.7020    1.0230 h1        1 MOL      0.013468
     79 H32        -2.7010   -4.0850   -0.6600 ho        1 MOL      0.277376
     80 H33        -3.0600   -7.3700    0.2640 hc        1 MOL      0.173606
     81 H34        -3.8180   -6.9880    1.8070 hc        1 MOL      0.173606
     82 H35        -4.5300   -6.1850    0.4080 hc        1 MOL      0.173606
     83 N9         -0.7100   -3.6260    2.4550 n         1 MOL     -0.522059
     84 C26         0.4930   -2.7150    2.4340 c3        1 MOL      0.046998
     85 C27         1.3710   -3.0360    1.2700 c         1 MOL      0.610995
     86 O15         1.6980   -4.1820    1.0670 o         1 MOL     -0.624088
     87 C28         1.2660   -2.8250    3.7390 c3        1 MOL     -0.031038
     88 C29         0.5910   -1.9610    4.8100 c3        1 MOL     -0.108178
     89 C30         2.7690   -2.4210    3.5160 c3        1 MOL     -0.157229
     90 C31         0.7510   -0.4920    4.5820 c3        1 MOL      0.238357
     91 H36        -0.6190   -4.4790    2.9800 hn        1 MOL      0.281540
     92 H37         0.0450   -1.7410    2.2280 h1        1 MOL      0.253287
     93 H38         1.2750   -3.8440    4.1150 hc        1 MOL      0.047032
     94 H39         0.9930   -2.1710    5.8030 hc        1 MOL      0.003676
     95 H40        -0.4950   -2.1330    4.8290 hc        1 MOL      0.003676
     96 H41         2.7110   -1.4420    3.0470 hc        1 MOL      0.037008
     97 H42         3.2830   -2.3190    4.4750 hc        1 MOL      0.037008
     98 H43         3.3710   -3.0960    2.9040 hc        1 MOL      0.037008
     99 H44         0.1190    0.1080    5.2320 hc        1 MOL     -0.082234
    100 H45         1.7930   -0.2730    4.7890 hc        1 MOL     -0.082234
    101 H46         0.4210   -0.1010    3.6150 hc        1 MOL     -0.082234
    102 N10         1.7360   -2.0610    0.4810 n         1 MOL     -0.098042
    103 C32         2.6290   -2.1280   -0.6980 c3        1 MOL      0.036717
    104 C33         4.1020   -1.8320   -0.4870 c         1 MOL      0.545360
    105 O16         4.5140   -1.2820    0.5420 o         1 MOL     -0.410682
    106 C34         2.0070   -1.2740   -1.8650 c3        1 MOL     -0.181196
    107 C35         0.5290   -1.5600   -2.2050 c         1 MOL      0.638324
    108 O17        -0.4150   -1.3430   -1.3900 o         1 MOL     -0.655637
    109 O18         0.2840   -2.0840   -3.3380 o         1 MOL     -0.655637
    110 H47         1.2530   -1.2020    0.7090 hn        1 MOL     -0.167698
    111 H48         2.6940   -3.1510   -1.0580 h1        1 MOL      0.045000
    112 H49         2.6060   -1.4280   -2.7620 hc        1 MOL      0.077298
    113 H50         2.0910   -0.2060   -1.6670 hc        1 MOL      0.077298
    114 N11         4.9760   -2.1490   -1.4800 n         1 MOL     -0.704135
    115 C36         6.3850   -1.8720   -1.2420 c3        1 MOL      0.365383
    116 C37         6.7950   -0.3500   -1.0190 c         1 MOL      0.342142
    117 O19         7.4820   -0.1120   -0.0260 o         1 MOL     -0.501295
    118 C38         7.2190   -2.5610   -2.2770 c3        1 MOL     -0.185901
    119 C39         8.6750   -2.1500   -2.3770 ca        1 MOL      0.140129
    120 C40         9.6240   -2.3740   -1.3260 ca        1 MOL     -0.195504
    121 C41         9.0800   -1.5820   -3.5790 ca        1 MOL     -0.195504
    122 C42        10.9080   -1.7620   -1.4460 ca        1 MOL     -0.123532
    123 C43        10.3380   -1.0010   -3.6950 ca        1 MOL     -0.123532
    124 C44        11.2440   -1.0340   -2.6060 ca        1 MOL     -0.088435
    125 H51         4.7120   -2.5640   -2.3610 hn        1 MOL      0.387493
    126 H52         6.6770   -2.2960   -0.2770 h1        1 MOL      0.032728
    127 H53         6.6990   -2.3890   -3.2240 hc        1 MOL      0.043438
    128 H54         7.2480   -3.6340   -2.1380 hc        1 MOL      0.043438
    129 H55         9.3110   -2.7950   -0.3790 ha        1 MOL      0.130585
    130 H56         8.3590   -1.5050   -4.3770 ha        1 MOL      0.130585
    131 H57        11.5780   -1.8430   -0.6100 ha        1 MOL      0.116198
    132 H58        10.6590   -0.4700   -4.5760 ha        1 MOL      0.116198
    133 H59        12.2240   -0.6000   -2.7330 ha        1 MOL      0.090066
    134 N12         6.2650    0.6080   -1.7890 n         1 MOL     -0.082304
    135 C45         6.2730    1.9890   -1.3800 c3        1 MOL      0.027460
    136 C46         5.6320    2.3990   -0.0240 c         1 MOL      0.388730
    137 O20         5.8850    3.4720    0.4710 o         1 MOL     -0.525509
    138 C47         5.6010    2.6790   -2.5110 c3        1 MOL     -0.124972
    139 C48         4.6970    1.6210   -3.2160 c3        1 MOL     -0.039830
    140 C49         5.5780    0.4100   -3.0490 c3        1 MOL      0.214661
    141 H60         7.3170    2.2890   -1.3250 h1        1 MOL      0.062589
    142 H61         5.0530    3.5540   -2.1950 hc        1 MOL      0.045278
    143 H62         6.3910    3.0050   -3.1940 hc        1 MOL      0.045278
    144 H63         3.7410    1.5060   -2.7050 hc        1 MOL      0.045973
    145 H64         4.5770    1.7850   -4.2900 hc        1 MOL      0.045973
    146 H65         4.9750   -0.4870   -3.1750 h1        1 MOL     -0.069200
    147 H66         6.3280    0.4460   -3.8400 h1        1 MOL     -0.069200
    148 N13         4.8840    1.4820    0.6150 n         1 MOL      0.002228
    149 C50         4.2010    1.7330    1.9190 c3        1 MOL      0.001840
    150 C51         5.0220    1.1640    3.1220 c         1 MOL      0.394951
    151 O21         5.3760    1.9320    4.0230 o         1 MOL     -0.552545
    152 C52         2.7310    1.3970    1.9040 c3        1 MOL      0.161531
    153 C53         1.7980    2.0490    0.8620 c3        1 MOL     -0.067077
    154 C54         0.5100    1.2280    0.5570 c         1 MOL      0.560349
    155 O22         0.2790    0.1850    1.2330 o         1 MOL     -0.633187
    156 O23        -0.1710    1.5820   -0.3880 o         1 MOL     -0.633187
    157 H67         4.9110    0.5440    0.2480 hn        1 MOL     -0.081883
    158 H68         4.2170    2.7920    2.1930 h1        1 MOL      0.044779
    159 H69         2.3070    1.4020    2.9020 hc        1 MOL     -0.016578
    160 H70         2.8080    0.3650    1.5450 hc        1 MOL     -0.016578
    161 H71         2.3590    2.1630   -0.0700 hc        1 MOL      0.023896
    162 H72         1.6030    3.0430    1.2530 hc        1 MOL      0.023896
    163 N14         5.4430   -0.0710    3.0450 n         1 MOL     -0.106895
    164 C55         6.6140   -0.6060    3.7710 c3        1 MOL     -0.138718
    165 H73         7.2240    0.2210    4.1330 h1        1 MOL      0.063329
    166 H74         6.2760   -1.2060    4.6160 h1        1 MOL      0.063329
    167 H75         7.2060   -1.2270    3.0990 h1        1 MOL      0.063329
    168 H76         5.1580   -0.6140    2.2510 hn        1 MOL      0.174025
    169 Ca1        -2.2040   -0.0580   -0.0860 Ca        1 MOL      1.615557
    170 O24        -2.0780    0.0600    2.7440 oh        1 MOL     -0.752543
    171 H77        -2.2540    0.0130    3.6840 ho        1 MOL      0.378784
    172 H78        -1.1910    0.3990    2.6820 ho        1 MOL      0.378784
    173 O25        -4.6660   -0.2240    1.0860 oh        1 MOL     -0.752543
    174 H79        -4.6680    0.7300    1.1940 ho        1 MOL      0.378784
    175 H80        -5.0220   -0.5610    1.9040 ho        1 MOL      0.378784
@<TRIPOS>BOND
     1    1    2 1   
     2    1    4 1   
     3    1    5 1   
     4    1    6 1   
     5    2    3 2   
     6    2    7 1   
     7    7    8 1   
     8    7   15 1   
     9    8    9 1   
    10    8   11 1   
    11    8   16 1   
    12    9   10 2   
    13    9   19 1   
    14   11   12 1   
    15   11   17 1   
    16   11   18 1   
    17   12   13 1   
    18   12   14 1   
    19   19   20 1   
    20   19   24 1   
    21   20   21 1   
    22   20   23 1   
    23   20   25 1   
    24   21   22 2   
    25   21   29 1   
    26   23   26 1   
    27   23   27 1   
    28   23   28 1   
    29   29   30 1   
    30   29   37 1   
    31   30   31 1   
    32   30   33 1   
    33   30   38 1   
    34   31   32 2   
    35   31   41 1   
    36   33   34 1   
    37   33   39 1   
    38   33   40 1   
    39   34   35 1   
    40   34   36 1   
    41   41   42 1   
    42   41   45 1   
    43   42   43 1   
    44   42   46 1   
    45   42   47 1   
    46   43   44 2   
    47   43   48 1   
    48   48   49 1   
    49   48   56 1   
    50   49   50 1   
    51   49   52 1   
    52   49   57 1   
    53   50   51 2   
    54   50   62 1   
    55   52   53 1   
    56   52   58 1   
    57   52   59 1   
    58   53   54 1   
    59   53   55 2   
    60   54   60 1   
    61   54   61 1   
    62   62   63 1   
    63   62   66 1   
    64   63   64 1   
    65   63   67 1   
    66   63   68 1   
    67   64   65 2   
    68   64   69 1   
    69   69   70 1   
    70   69   76 1   
    71   70   71 1   
    72   70   73 1   
    73   70   77 1   
    74   71   72 2   
    75   71   83 1   
    76   73   74 1   
    77   73   75 1   
    78   73   78 1   
    79   74   80 1   
    80   74   81 1   
    81   74   82 1   
    82   75   79 1   
    83   83   84 1   
    84   83   91 1   
    85   84   85 1   
    86   84   87 1   
    87   84   92 1   
    88   85   86 2   
    89   85  102 1   
    90   87   88 1   
    91   87   89 1   
    92   87   93 1   
    93   88   90 1   
    94   88   94 1   
    95   88   95 1   
    96   89   96 1   
    97   89   97 1   
    98   89   98 1   
    99   90   99 1   
   100   90  100 1   
   101   90  101 1   
   102  102  103 1   
   103  102  110 1   
   104  103  104 1   
   105  103  106 1   
   106  103  111 1   
   107  104  105 2   
   108  104  114 1   
   109  106  107 1   
   110  106  112 1   
   111  106  113 1   
   112  107  108 1   
   113  107  109 1   
   114  114  115 1   
   115  114  125 1   
   116  115  116 1   
   117  115  118 1   
   118  115  126 1   
   119  116  117 2   
   120  116  134 1   
   121  118  119 1   
   122  118  127 1   
   123  118  128 1   
   124  119  120 ar  
   125  119  121 ar  
   126  120  122 ar  
   127  120  129 1   
   128  121  123 ar  
   129  121  130 1   
   130  122  124 ar  
   131  122  131 1   
   132  123  124 ar  
   133  123  132 1   
   134  124  133 1   
   135  134  135 1   
   136  134  140 1   
   137  135  136 1   
   138  135  138 1   
   139  135  141 1   
   140  136  137 2   
   141  136  148 1   
   142  138  139 1   
   143  138  142 1   
   144  138  143 1   
   145  139  140 1   
   146  139  144 1   
   147  139  145 1   
   148  140  146 1   
   149  140  147 1   
   150  148  149 1   
   151  148  157 1   
   152  149  150 1   
   153  149  152 1   
   154  149  158 1   
   155  150  151 2   
   156  150  163 1   
   157  152  153 1   
   158  152  159 1   
   159  152  160 1   
   160  153  154 1   
   161  153  161 1   
   162  153  162 1   
   163  154  155 1   
   164  154  156 1   
   165  163  164 1   
   166  163  168 1   
   167  164  165 1   
   168  164  166 1   
   169  164  167 1   
   170  170  171 1   
   171  170  172 1   
   172  173  174 1   
   173  173  175 1   
@<TRIPOS>SUBSTRUCTURE
     1 MOL         1 TEMP              0 ****  ****    0 ROOT
