@<TRIPOS>MOLECULE
MOL
  189   185     1     0     0
SMALL
resp


@<TRIPOS>ATOM
      1 C1          0.1860   -2.1200    6.3820 c3        1 MOL     -0.503223
      2 C2          0.5840   -1.9180    4.9280 c         1 MOL      0.825420
      3 O1          0.9760   -0.8230    4.5550 o         1 MOL     -0.636981
      4 H1         -0.2990   -1.2190    6.7540 hc        1 MOL      0.125902
      5 H2         -0.5040   -2.9610    6.4570 hc        1 MOL      0.125902
      6 H3          1.0750   -2.3260    6.9780 hc        1 MOL      0.125902
      7 N1          0.6630   -3.0160    4.1650 n         1 MOL     -0.696581
      8 C3          1.3620   -2.9600    2.9230 c3        1 MOL      0.567881
      9 C4          1.1790   -4.2280    2.1030 c         1 MOL      0.321535
     10 O2          0.9830   -5.3170    2.6960 o         1 MOL     -0.602914
     11 C5          2.9450   -2.9130    3.2520 c3        1 MOL     -0.543927
     12 C6          3.7950   -2.5810    2.0070 c         1 MOL      0.783782
     13 O3          5.0270   -2.4420    2.2040 o         1 MOL     -0.666342
     14 O4          3.2700   -2.2190    0.9260 o         1 MOL     -0.666342
     15 H4          0.3190   -3.8680    4.5730 hn        1 MOL      0.319475
     16 H5          1.0130   -2.1690    2.2600 h1        1 MOL     -0.003438
     17 H6          3.2850   -3.8950    3.5680 hc        1 MOL      0.137864
     18 H7          3.0670   -2.2170    4.0840 hc        1 MOL      0.137864
     19 N2          1.3330   -4.2060    0.7900 n         1 MOL     -0.054786
     20 C7          1.3240   -5.3780   -0.1470 c3        1 MOL     -0.028479
     21 C8          2.4400   -5.4310   -1.1910 c         1 MOL      0.412931
     22 O5          2.9490   -6.5460   -1.4630 o         1 MOL     -0.577383
     23 C9         -0.0690   -5.3720   -0.8210 c3        1 MOL      0.203855
     24 C10        -1.1390   -5.7320    0.2300 c3        1 MOL     -0.031991
     25 C11        -0.1600   -6.4510   -1.8820 c3        1 MOL     -0.196454
     26 C12        -1.2850   -7.0900    0.9530 c3        1 MOL     -0.210668
     27 H8          1.6700   -3.3300    0.4300 hn        1 MOL     -0.027252
     28 H9          1.4930   -6.2880    0.4280 h1        1 MOL      0.105111
     29 H10        -0.2910   -4.4230   -1.3020 hc        1 MOL     -0.000656
     30 H11        -2.1180   -5.6310   -0.2410 hc        1 MOL      0.034206
     31 H12        -1.1730   -4.9010    0.9200 hc        1 MOL      0.034206
     32 H13         0.3440   -7.4050   -1.6940 hc        1 MOL      0.033860
     33 H14        -1.2060   -6.7230   -1.9880 hc        1 MOL      0.033860
     34 H15         0.0450   -6.0030   -2.8480 hc        1 MOL      0.033860
     35 H16        -1.6370   -7.8470    0.2610 hc        1 MOL      0.047684
     36 H17        -0.3150   -7.4660    1.2840 hc        1 MOL      0.047684
     37 H18        -2.0960   -7.0370    1.6820 hc        1 MOL      0.047684
     38 N3          3.0650   -4.3000   -1.5030 n         1 MOL     -0.214140
     39 C13         3.9980   -4.1330   -2.6010 c3        1 MOL      0.031785
     40 C14         5.4100   -3.5860   -2.1160 c         1 MOL      0.400313
     41 O6          6.3000   -3.6810   -2.9190 o         1 MOL     -0.545566
     42 C15         3.3790   -3.1690   -3.6640 c3        1 MOL     -0.157298
     43 C16         2.9800   -1.7680   -3.1110 c         1 MOL      0.763478
     44 O7          3.3520   -1.3930   -1.9690 o         1 MOL     -0.697683
     45 O8          2.2240   -1.0990   -3.8700 o         1 MOL     -0.697683
     46 H19         2.8290   -3.4480   -1.0180 hn        1 MOL      0.187825
     47 H20         4.0320   -5.0850   -3.1330 h1        1 MOL      0.083620
     48 H21         2.4270   -3.5340   -4.0630 hc        1 MOL      0.036883
     49 H22         4.0490   -3.0560   -4.5070 hc        1 MOL      0.036883
     50 N4          5.5890   -3.0760   -0.8960 n         1 MOL     -0.167608
     51 C17         6.9700   -2.5890   -0.5860 c3        1 MOL     -0.375481
     52 C18         7.3280   -1.1630   -1.1940 c         1 MOL      0.526628
     53 O9          8.4800   -0.7450   -1.0470 o         1 MOL     -0.587006
     54 H23         4.8400   -2.8760   -0.2500 hn        1 MOL      0.119251
     55 H24         7.6630   -3.3710   -0.8850 h1        1 MOL      0.171597
     56 H25         7.0260   -2.5870    0.5080 h1        1 MOL      0.171597
     57 N5          6.4170   -0.4480   -1.9110 n         1 MOL     -0.203654
     58 C19         6.7920    0.7950   -2.6430 c3        1 MOL     -0.039615
     59 C20         7.2780    1.9530   -1.7760 c         1 MOL      0.471455
     60 O10         8.0360    2.8110   -2.2320 o         1 MOL     -0.597531
     61 C21         5.5230    1.2930   -3.4200 c3        1 MOL     -0.090414
     62 C22         4.3030    1.7260   -2.5750 c         1 MOL      0.742565
     63 O11         4.2640    1.5600   -1.3260 o         1 MOL     -0.710002
     64 O12         3.3490    2.3670   -3.0800 o         1 MOL     -0.710002
     65 H26         5.4630   -0.7890   -1.9370 hn        1 MOL      0.194171
     66 H27         7.6010    0.6060   -3.3490 h1        1 MOL      0.083227
     67 H28         5.1880    0.4780   -4.0760 hc        1 MOL      0.023698
     68 H29         5.7290    2.1060   -4.1050 hc        1 MOL      0.023698
     69 N6          6.8870    1.9640   -0.5130 n         1 MOL     -0.099774
     70 C23         7.2230    2.9790    0.5260 c3        1 MOL     -0.099007
     71 C24         6.0010    3.8440    1.0300 c         1 MOL      0.563212
     72 O13         6.2780    4.6810    1.8940 o         1 MOL     -0.609942
     73 H30         6.3050    1.1910   -0.2380 hn        1 MOL      0.150212
     74 H31         8.0070    3.6520    0.1940 h1        1 MOL      0.056703
     75 H32         7.5980    2.4200    1.3790 h1        1 MOL      0.056703
     76 N7          4.7810    3.6590    0.5170 n         1 MOL     -0.380168
     77 C25         3.5770    4.4350    0.8170 c3        1 MOL      0.175699
     78 C26         2.3580    3.5420    1.2470 c         1 MOL      0.514202
     79 O14         2.3310    2.4230    0.7430 o         1 MOL     -0.609425
     80 C27         3.2390    5.4110   -0.3120 c3        1 MOL     -0.094871
     81 C28         4.2270    6.5580   -0.1850 c3        1 MOL     -0.476056
     82 C29         3.7340    7.7640   -0.9020 c         1 MOL      0.799643
     83 N8          4.2570    8.9450   -0.7910 n         1 MOL     -0.851914
     84 O15         2.8680    7.7950   -1.7560 o         1 MOL     -0.588152
     85 H33         4.6720    2.8620   -0.1030 hn        1 MOL      0.215212
     86 H34         3.8060    5.0480    1.6820 h1        1 MOL     -0.007840
     87 H35         2.2080    5.7280   -0.1690 hc        1 MOL      0.092511
     88 H36         3.2330    4.9910   -1.3170 hc        1 MOL      0.092511
     89 H37         5.1920    6.2540   -0.5740 hc        1 MOL      0.152542
     90 H38         4.3990    6.8140    0.8550 hc        1 MOL      0.152542
     91 H39         5.0520    9.0680   -0.1940 hn        1 MOL      0.355741
     92 H40         3.8500    9.6850   -1.3460 hn        1 MOL      0.355741
     93 N9          1.3690    4.0310    2.0680 n         1 MOL     -0.563446
     94 C30         0.1050    3.2510    2.2260 c3        1 MOL      0.081294
     95 C31        -0.9070    3.4860    1.1030 c         1 MOL      0.606797
     96 O16        -1.1680    4.6060    0.7620 o         1 MOL     -0.614559
     97 C32        -0.5010    3.4850    3.6480 c3        1 MOL      0.051276
     98 C33        -1.7920    2.6870    3.7510 c3        1 MOL     -0.212060
     99 C34         0.3840    2.9960    4.7480 c3        1 MOL     -0.212060
    100 H41         1.4710    5.0070    2.2900 hn        1 MOL      0.317447
    101 H42         0.3650    2.2020    2.1900 h1        1 MOL      0.158046
    102 H43        -0.7290    4.5390    3.7560 hc        1 MOL      0.010033
    103 H44        -2.1560    2.8540    4.7680 hc        1 MOL      0.052492
    104 H45        -2.5790    3.0020    3.0700 hc        1 MOL      0.052492
    105 H46        -1.5960    1.6300    3.5720 hc        1 MOL      0.052492
    106 H47        -0.1400    2.7690    5.6760 hc        1 MOL      0.052492
    107 H48         0.8700    2.0380    4.5690 hc        1 MOL      0.052492
    108 H49         1.2130    3.6670    4.9760 hc        1 MOL      0.052492
    109 N10        -1.5020    2.4450    0.5650 n         1 MOL     -0.184573
    110 C35        -2.5250    2.5510   -0.4820 c3        1 MOL      0.278249
    111 C36        -3.9350    2.1640    0.0970 c         1 MOL      0.234695
    112 O17        -4.0570    1.6790    1.1980 o         1 MOL     -0.301204
    113 C37        -2.0150    1.7510   -1.7600 c3        1 MOL     -0.260007
    114 C38        -2.9680    1.9660   -2.9690 c         1 MOL      0.684402
    115 N11        -2.7650    2.9550   -3.8310 n         1 MOL     -0.736397
    116 O18        -3.9650    1.2390   -3.1580 o         1 MOL     -0.562770
    117 H50        -1.1630    1.5290    0.8350 hn        1 MOL     -0.105174
    118 H51        -2.6220    3.5850   -0.7870 h1        1 MOL     -0.028756
    119 H52        -1.8760    0.7150   -1.4530 hc        1 MOL      0.118904
    120 H53        -1.0740    2.1490   -2.1420 hc        1 MOL      0.118904
    121 H54        -2.0160    3.6220   -3.7060 hn        1 MOL      0.346308
    122 H55        -3.5230    3.2010   -4.4460 hn        1 MOL      0.346308
    123 N12        -4.9960    2.4050   -0.7370 n         1 MOL     -0.356345
    124 C39        -6.3340    2.0710   -0.4230 c3        1 MOL      0.255734
    125 C40        -6.4930    0.5430   -0.2720 c         1 MOL      0.481957
    126 O19        -7.3630    0.1010    0.3760 o         1 MOL     -0.542169
    127 C41        -7.1300    2.7270   -1.5680 c3        1 MOL     -0.144310
    128 C42        -8.6620    2.5900   -1.4200 ca        1 MOL     -0.025589
    129 C43        -9.4080    3.4960   -0.5860 ca        1 MOL     -0.092800
    130 C44        -9.4060    1.7700   -2.2780 ca        1 MOL     -0.092800
    131 C45       -10.8190    3.5060   -0.5530 ca        1 MOL     -0.320212
    132 C46       -10.7660    1.7930   -2.2760 ca        1 MOL     -0.320212
    133 C47       -11.4760    2.6180   -1.3940 ca        1 MOL      0.436948
    134 O20       -12.8540    2.6820   -1.4250 oh        1 MOL     -0.568132
    135 H56        -4.8080    2.6920   -1.6840 hn        1 MOL      0.189548
    136 H57        -6.6220    2.5190    0.5230 h1        1 MOL     -0.009004
    137 H58        -6.7760    2.4090   -2.5460 hc        1 MOL      0.058286
    138 H59        -6.9180    3.7910   -1.4660 hc        1 MOL      0.058286
    139 H60        -8.7850    4.1770   -0.0260 ha        1 MOL      0.127861
    140 H61        -8.8880    1.1800   -3.0150 ha        1 MOL      0.127861
    141 H62       -11.2870    4.2650    0.0620 ha        1 MOL      0.150342
    142 H63       -11.3860    1.1390   -2.8690 ha        1 MOL      0.150342
    143 H64       -13.2440    2.2920   -2.2090 ho        1 MOL      0.376776
    144 N13        -5.6630   -0.3030   -0.8530 n         1 MOL     -0.141039
    145 C48        -5.7490   -1.7650   -0.7980 c3        1 MOL     -0.258177
    146 C49        -5.3060   -2.2680    0.6380 c         1 MOL      0.462007
    147 O21        -5.6800   -3.3740    1.0700 o         1 MOL     -0.508027
    148 C50        -4.7120   -2.3200   -1.8190 c3        1 MOL      0.500902
    149 C51        -5.2220   -2.4920   -3.2760 c3        1 MOL     -0.403195
    150 C52        -6.0510   -3.7680   -3.4860 c         1 MOL      0.719064
    151 O22        -6.9270   -4.0320   -2.6600 o         1 MOL     -0.743751
    152 O23        -5.9260   -4.3600   -4.6150 o         1 MOL     -0.743751
    153 H65        -4.9930    0.1380   -1.4660 hn        1 MOL      0.070154
    154 H66        -6.7650   -2.0940   -1.0060 h1        1 MOL      0.187936
    155 H67        -4.2260   -3.2430   -1.5140 hc        1 MOL     -0.092253
    156 H68        -3.8410   -1.6730   -1.7650 hc        1 MOL     -0.092253
    157 H69        -4.4220   -2.4940   -4.0180 hc        1 MOL      0.067297
    158 H70        -5.8540   -1.6740   -3.6090 hc        1 MOL      0.067297
    159 N14        -4.4680   -1.4670    1.2840 n         1 MOL     -0.309859
    160 C53        -3.5070   -1.8780    2.3830 c3        1 MOL     -0.112443
    161 C54        -3.9750   -1.4100    3.8670 c         1 MOL      0.445590
    162 O24        -3.7020   -2.0160    4.8850 o         1 MOL     -0.521723
    163 C55        -2.1520   -1.2040    1.9770 c3        1 MOL      0.086307
    164 C56        -1.6130   -1.6970    0.5990 c3        1 MOL      0.199189
    165 C57        -0.2100   -1.1300    0.2550 c         1 MOL      0.403833
    166 O25         0.5800   -1.7740   -0.4560 o         1 MOL     -0.567401
    167 O26         0.1250   -0.0080    0.6880 o         1 MOL     -0.567401
    168 H71        -4.2980   -0.5480    0.9070 hn        1 MOL      0.132171
    169 H72        -3.3320   -2.9540    2.4740 h1        1 MOL      0.083254
    170 H73        -1.2990   -1.3890    2.6260 hc        1 MOL      0.000479
    171 H74        -2.3890   -0.1410    1.9800 hc        1 MOL      0.000479
    172 H75        -2.2450   -1.3970   -0.2380 hc        1 MOL     -0.036751
    173 H76        -1.6050   -2.7840    0.6270 hc        1 MOL     -0.036751
    174 N15        -4.5520   -0.1740    3.9210 n         1 MOL     -0.170767
    175 C58        -4.6340    0.6310    5.1690 c3        1 MOL     -0.103694
    176 H77        -5.0680    1.6050    4.9440 h1        1 MOL      0.059074
    177 H78        -5.2610    0.1130    5.8960 h1        1 MOL      0.059074
    178 H79        -3.6350    0.7670    5.5830 h1        1 MOL      0.059074
    179 H80        -4.7180    0.3020    3.0530 hn        1 MOL      0.114479
    180 Ca1         2.6380    0.0010    0.0050 Ca        1 MOL      1.754278
    181 O27         2.6020    0.3740    2.7680 oh        1 MOL     -0.854461
    182 H81         3.2510    0.7740    3.3350 ho        1 MOL      0.403606
    183 H82         1.8750    0.1600    3.3450 ho        1 MOL      0.403606
    184 O28         1.3190    0.7060   -2.1600 oh        1 MOL     -0.854461
    185 H83         1.8900    1.4190   -2.4410 ho        1 MOL      0.403606
    186 H84         1.3390    0.0850   -2.8970 ho        1 MOL      0.403606
    187 O29         5.4530   -0.0650    1.2930 oh        1 MOL     -0.854461
    188 H85         5.7790    0.4120    2.0530 ho        1 MOL      0.403606
    189 H86         5.3310   -0.9640    1.5980 ho        1 MOL      0.403606
@<TRIPOS>BOND
     1    1    2 1   
     2    1    4 1   
     3    1    5 1   
     4    1    6 1   
     5    2    3 2   
     6    2    7 1   
     7    7    8 1   
     8    7   15 1   
     9    8    9 1   
    10    8   11 1   
    11    8   16 1   
    12    9   10 2   
    13    9   19 1   
    14   11   12 1   
    15   11   17 1   
    16   11   18 1   
    17   12   13 1   
    18   12   14 1   
    19   19   20 1   
    20   19   27 1   
    21   20   21 1   
    22   20   23 1   
    23   20   28 1   
    24   21   22 2   
    25   21   38 1   
    26   23   24 1   
    27   23   25 1   
    28   23   29 1   
    29   24   26 1   
    30   24   30 1   
    31   24   31 1   
    32   25   32 1   
    33   25   33 1   
    34   25   34 1   
    35   26   35 1   
    36   26   36 1   
    37   26   37 1   
    38   38   39 1   
    39   38   46 1   
    40   39   40 1   
    41   39   42 1   
    42   39   47 1   
    43   40   41 2   
    44   40   50 1   
    45   42   43 1   
    46   42   48 1   
    47   42   49 1   
    48   43   44 1   
    49   43   45 1   
    50   50   51 1   
    51   50   54 1   
    52   51   52 1   
    53   51   55 1   
    54   51   56 1   
    55   52   53 2   
    56   52   57 1   
    57   57   58 1   
    58   57   65 1   
    59   58   59 1   
    60   58   61 1   
    61   58   66 1   
    62   59   60 2   
    63   59   69 1   
    64   61   62 1   
    65   61   67 1   
    66   61   68 1   
    67   62   63 1   
    68   62   64 1   
    69   69   70 1   
    70   69   73 1   
    71   70   71 1   
    72   70   74 1   
    73   70   75 1   
    74   71   72 2   
    75   71   76 1   
    76   76   77 1   
    77   76   85 1   
    78   77   78 1   
    79   77   80 1   
    80   77   86 1   
    81   78   79 2   
    82   78   93 1   
    83   80   81 1   
    84   80   87 1   
    85   80   88 1   
    86   81   82 1   
    87   81   89 1   
    88   81   90 1   
    89   82   83 1   
    90   82   84 2   
    91   83   91 1   
    92   83   92 1   
    93   93   94 1   
    94   93  100 1   
    95   94   95 1   
    96   94   97 1   
    97   94  101 1   
    98   95   96 2   
    99   95  109 1   
   100   97   98 1   
   101   97   99 1   
   102   97  102 1   
   103   98  103 1   
   104   98  104 1   
   105   98  105 1   
   106   99  106 1   
   107   99  107 1   
   108   99  108 1   
   109  109  110 1   
   110  109  117 1   
   111  110  111 1   
   112  110  113 1   
   113  110  118 1   
   114  111  112 2   
   115  111  123 1   
   116  113  114 1   
   117  113  119 1   
   118  113  120 1   
   119  114  115 1   
   120  114  116 2   
   121  115  121 1   
   122  115  122 1   
   123  123  124 1   
   124  123  135 1   
   125  124  125 1   
   126  124  127 1   
   127  124  136 1   
   128  125  126 2   
   129  125  144 1   
   130  127  128 1   
   131  127  137 1   
   132  127  138 1   
   133  128  129 ar  
   134  128  130 ar  
   135  129  131 ar  
   136  129  139 1   
   137  130  132 ar  
   138  130  140 1   
   139  131  133 ar  
   140  131  141 1   
   141  132  133 ar  
   142  132  142 1   
   143  133  134 1   
   144  134  143 1   
   145  144  145 1   
   146  144  153 1   
   147  145  146 1   
   148  145  148 1   
   149  145  154 1   
   150  146  147 2   
   151  146  159 1   
   152  148  149 1   
   153  148  155 1   
   154  148  156 1   
   155  149  150 1   
   156  149  157 1   
   157  149  158 1   
   158  150  151 1   
   159  150  152 1   
   160  159  160 1   
   161  159  168 1   
   162  160  161 1   
   163  160  163 1   
   164  160  169 1   
   165  161  162 2   
   166  161  174 1   
   167  163  164 1   
   168  163  170 1   
   169  163  171 1   
   170  164  165 1   
   171  164  172 1   
   172  164  173 1   
   173  165  166 1   
   174  165  167 1   
   175  174  175 1   
   176  174  179 1   
   177  175  176 1   
   178  175  177 1   
   179  175  178 1   
   180  181  182 1   
   181  181  183 1   
   182  184  185 1   
   183  184  186 1   
   184  187  188 1   
   185  187  189 1   
@<TRIPOS>SUBSTRUCTURE
     1 MOL         1 TEMP              0 ****  ****    0 ROOT
