@<TRIPOS>MOLECULE
MOL
  175   173     1     0     0
SMALL
resp


@<TRIPOS>ATOM
      1 C1         -0.1900   -3.4400    5.7490 c3        1 MOL     -0.296538
      2 C2          0.3620   -3.5370    4.3550 c         1 MOL      0.756757
      3 O1         -0.4250   -3.8820    3.4520 o         1 MOL     -0.565056
      4 H1         -1.2780   -3.4810    5.7130 hc        1 MOL      0.065266
      5 H2          0.1850   -4.2710    6.3470 hc        1 MOL      0.065266
      6 H3          0.1230   -2.4980    6.1990 hc        1 MOL      0.065266
      7 N1          1.6550   -3.3410    4.1940 n         1 MOL     -0.733282
      8 C3          2.3880   -3.1660    2.9520 c3        1 MOL      0.304530
      9 C4          2.3410   -4.4540    2.1530 c         1 MOL      0.568516
     10 O2          2.5940   -5.5250    2.6900 o         1 MOL     -0.602562
     11 C5          3.8070   -2.5980    3.1100 c3        1 MOL     -0.198287
     12 C6          4.3580   -2.2470    1.7580 c         1 MOL      0.572273
     13 O3          5.5020   -2.6150    1.4720 o         1 MOL     -0.586103
     14 O4          3.6680   -1.5620    0.9570 o         1 MOL     -0.586103
     15 H4          2.1750   -3.3440    5.0590 hn        1 MOL      0.331554
     16 H5          1.8790   -2.3720    2.4190 h1        1 MOL     -0.008937
     17 H6          4.4640   -3.2720    3.6730 hc        1 MOL      0.031516
     18 H7          3.7470   -1.6120    3.5780 hc        1 MOL      0.031516
     19 N2          2.2090   -4.3360    0.8930 n         1 MOL     -0.438957
     20 C7          2.3030   -5.4180   -0.0760 c3        1 MOL      0.249994
     21 C8          3.2420   -5.1670   -1.2490 c         1 MOL      0.413674
     22 O5          3.6560   -6.1890   -1.8950 o         1 MOL     -0.593769
     23 C9          0.9000   -5.8240   -0.4500 c3        1 MOL     -0.176670
     24 H8          1.8650   -3.4520    0.5530 hn        1 MOL      0.232809
     25 H9          2.7650   -6.2810    0.4000 h1        1 MOL      0.034077
     26 H10         0.3190   -6.3440    0.3070 hc        1 MOL      0.038773
     27 H11         0.3260   -4.9950   -0.8710 hc        1 MOL      0.038773
     28 H12         0.9980   -6.5790   -1.2400 hc        1 MOL      0.038773
     29 N3          3.6560   -3.9440   -1.5460 n         1 MOL     -0.200879
     30 C10         4.5070   -3.6350   -2.7980 c3        1 MOL     -0.036958
     31 C11         5.7410   -2.8070   -2.5470 c         1 MOL      0.396919
     32 O6          6.6040   -2.8890   -3.3400 o         1 MOL     -0.561536
     33 C12         3.6250   -2.8500   -3.8560 c3        1 MOL     -0.105316
     34 C13         2.8710   -1.5760   -3.3970 c         1 MOL      0.572270
     35 O7          1.8030   -1.3610   -4.0310 o         1 MOL     -0.622099
     36 O8          3.2670   -0.9110   -2.3380 o         1 MOL     -0.622099
     37 H13         3.3430   -3.1680   -0.9650 hn        1 MOL      0.203055
     38 H14         4.7970   -4.5990   -3.2080 h1        1 MOL      0.118238
     39 H15         2.9490   -3.6030   -4.2550 hc        1 MOL      0.031528
     40 H16         4.1650   -2.5480   -4.7580 hc        1 MOL      0.031528
     41 N4          6.0080   -2.2660   -1.3730 n         1 MOL      0.009159
     42 C14         7.2850   -1.5660   -1.0360 c3        1 MOL     -0.173973
     43 C15         7.3410   -0.1040   -1.3330 c         1 MOL      0.559687
     44 O9          8.4770    0.4160   -1.4140 o         1 MOL     -0.612049
     45 H17         5.3380   -2.3430   -0.6260 hn        1 MOL     -0.029140
     46 H18         8.0760   -2.1390   -1.5050 h1        1 MOL      0.094223
     47 H19         7.3030   -1.6970    0.0530 h1        1 MOL      0.094223
     48 N5          6.2250    0.6230   -1.4960 n         1 MOL     -0.258757
     49 C16         6.1820    2.0100   -2.0360 c3        1 MOL     -0.014345
     50 C17         6.0730    3.2590   -1.0750 c         1 MOL      0.380378
     51 O10         6.0010    4.4560   -1.5170 o         1 MOL     -0.499827
     52 C18         5.1800    2.0320   -3.2070 c3        1 MOL     -0.258010
     53 C19         3.7310    2.1520   -2.8590 c         1 MOL      0.565117
     54 N6          2.8640    2.2150   -3.8180 n         1 MOL     -0.534985
     55 O11         3.3080    2.1000   -1.6780 o         1 MOL     -0.596870
     56 H20         5.3610    0.0960   -1.5180 hn        1 MOL      0.174241
     57 H21         7.1880    2.1710   -2.4390 h1        1 MOL      0.123099
     58 H22         5.2850    1.1580   -3.8520 hc        1 MOL      0.089027
     59 H23         5.2990    2.9480   -3.7900 hc        1 MOL      0.089027
     60 H24         3.1810    2.3350   -4.7700 hn        1 MOL      0.299696
     61 H25         1.8840    2.2110   -3.6000 hn        1 MOL      0.299696
     62 N7          6.2340    3.0850    0.2460 n         1 MOL     -0.205389
     63 C20         6.1900    4.0670    1.3140 c3        1 MOL     -0.305185
     64 C21         4.8760    4.5990    1.7570 c         1 MOL      0.687411
     65 O12         4.9720    5.4280    2.6520 o         1 MOL     -0.586533
     66 H26         6.0600    2.1340    0.5330 hn        1 MOL      0.181710
     67 H27         6.8110    4.9180    1.0450 h1        1 MOL      0.136800
     68 H28         6.6000    3.5500    2.1790 h1        1 MOL      0.136800
     69 N8          3.7230    4.1470    1.1460 n         1 MOL     -0.520641
     70 C22         2.4380    4.7340    1.5250 c3        1 MOL     -0.081491
     71 C23         1.3320    3.6640    1.3820 c         1 MOL      0.759036
     72 O13         1.5300    2.6790    0.6910 o         1 MOL     -0.729459
     73 C24         2.1060    5.8950    0.5700 c3        1 MOL      0.453711
     74 C25         3.1090    7.0280    0.8700 c3        1 MOL     -0.417035
     75 O14         2.1230    5.6840   -0.8610 oh        1 MOL     -0.579825
     76 H29         3.6180    3.5180    0.3700 hn        1 MOL      0.385121
     77 H30         2.4000    5.1260    2.5440 h1        1 MOL      0.061620
     78 H31         1.1280    6.2610    0.8830 h1        1 MOL     -0.064600
     79 H32         1.3920    5.0810   -1.0010 ho        1 MOL      0.375605
     80 H33         2.7060    7.9430    0.4290 hc        1 MOL      0.110181
     81 H34         3.2340    7.2620    1.9230 hc        1 MOL      0.110181
     82 H35         4.0300    6.6630    0.4110 hc        1 MOL      0.110181
     83 N9          0.1720    3.9370    1.9620 n         1 MOL     -0.675038
     84 C26        -0.8960    2.8960    1.9180 c3        1 MOL      0.021142
     85 C27        -1.5860    2.9640    0.5570 c         1 MOL      0.710437
     86 O15        -2.0370    4.0750    0.2250 o         1 MOL     -0.632148
     87 C28        -1.8720    3.0780    3.0720 c3        1 MOL      0.165767
     88 C29        -1.2000    3.2040    4.4610 c3        1 MOL      0.033381
     89 C30        -2.8710    1.9450    2.9940 c3        1 MOL     -0.131734
     90 C31        -2.2950    3.5420    5.5490 c3        1 MOL     -0.150453
     91 H36         0.0340    4.7450    2.5460 hn        1 MOL      0.330206
     92 H37        -0.4080    1.9160    1.9540 h1        1 MOL      0.045324
     93 H38        -2.4560    3.9790    2.8780 hc        1 MOL     -0.012477
     94 H39        -0.4090    3.9450    4.5720 hc        1 MOL     -0.007050
     95 H40        -0.7420    2.2370    4.6370 hc        1 MOL     -0.007050
     96 H41        -3.7100    2.1150    3.6740 hc        1 MOL      0.004249
     97 H42        -3.3850    1.7770    2.0460 hc        1 MOL      0.004249
     98 H43        -2.3780    1.0050    3.2610 hc        1 MOL      0.004249
     99 H44        -2.7530    4.4980    5.3120 hc        1 MOL      0.033869
    100 H45        -3.0150    2.7610    5.8130 hc        1 MOL      0.033869
    101 H46        -1.8550    3.6830    6.5320 hc        1 MOL      0.033869
    102 N10        -1.8350    1.8420   -0.0360 n         1 MOL     -0.485484
    103 C32        -2.6700    1.7250   -1.3050 c3        1 MOL     -0.101872
    104 C33        -4.0900    1.1360   -0.9600 c         1 MOL      0.639126
    105 O16        -4.3190    0.5220    0.0890 o         1 MOL     -0.411355
    106 C34        -1.8340    0.9500   -2.3670 c3        1 MOL     -0.221720
    107 C35        -0.4220    1.3960   -2.5570 c         1 MOL      0.821137
    108 O17        -0.1600    2.2900   -3.4430 o         1 MOL     -0.705551
    109 O18         0.4400    0.7090   -1.9960 o         1 MOL     -0.705551
    110 H47        -1.5520    0.9640    0.3800 hn        1 MOL      0.383965
    111 H48        -2.8270    2.7420   -1.6800 h1        1 MOL      0.107909
    112 H49        -2.2800    1.1590   -3.3450 hc        1 MOL      0.058753
    113 H50        -1.9990   -0.1180   -2.2640 hc        1 MOL      0.058753
    114 N11        -5.1140    1.3850   -1.7820 n         1 MOL     -0.795987
    115 C36        -6.5550    1.0430   -1.5600 c3        1 MOL      0.614661
    116 C37        -6.6760   -0.4510   -1.0700 c         1 MOL      0.159173
    117 O19        -7.3320   -0.6720   -0.0140 o         1 MOL     -0.494617
    118 C38        -7.4630    1.3800   -2.6970 c3        1 MOL     -0.369352
    119 C39        -8.9650    1.6850   -2.3960 ca        1 MOL      0.138173
    120 C40        -9.9390    0.7710   -2.9060 ca        1 MOL     -0.172229
    121 C41        -9.3030    2.7730   -1.5940 ca        1 MOL     -0.172229
    122 C42       -11.2990    1.1170   -2.6280 ca        1 MOL     -0.109253
    123 C43       -10.6230    3.0970   -1.4030 ca        1 MOL     -0.109253
    124 C44       -11.6770    2.3450   -1.9690 ca        1 MOL     -0.127067
    125 H51        -5.0270    2.0770   -2.5110 hn        1 MOL      0.350661
    126 H52        -6.9020    1.5780   -0.6760 h1        1 MOL     -0.011471
    127 H53        -7.4060    0.5060   -3.3520 hc        1 MOL      0.091773
    128 H54        -7.1240    2.2940   -3.1710 hc        1 MOL      0.091773
    129 H55        -9.7650   -0.1090   -3.5230 ha        1 MOL      0.138558
    130 H56        -8.5940    3.3940   -1.0720 ha        1 MOL      0.138558
    131 H57       -12.0050    0.3910   -3.0060 ha        1 MOL      0.108688
    132 H58       -10.9150    3.8760   -0.7220 ha        1 MOL      0.108688
    133 H59       -12.7350    2.5600   -1.9380 ha        1 MOL      0.109993
    134 N12        -5.9860   -1.5000   -1.5830 n         1 MOL      0.044628
    135 C45        -6.1410   -2.8970   -1.0890 c3        1 MOL      0.047186
    136 C46        -5.5400   -3.1260    0.2600 c         1 MOL      0.299986
    137 O20        -5.9780   -3.9330    1.0690 o         1 MOL     -0.515098
    138 C47        -5.3280   -3.7890   -2.1050 c3        1 MOL     -0.016299
    139 C48        -5.3920   -2.8630   -3.3690 c3        1 MOL      0.010279
    140 C49        -5.2240   -1.4510   -2.7890 c3        1 MOL     -0.234459
    141 H60        -7.1930   -3.2170   -1.0900 h1        1 MOL      0.067631
    142 H61        -4.2680   -3.8760   -1.8740 hc        1 MOL      0.034963
    143 H62        -5.8090   -4.7430   -2.2860 hc        1 MOL      0.034963
    144 H63        -4.6120   -3.1230   -4.0860 hc        1 MOL      0.014407
    145 H64        -6.3710   -3.0560   -3.8110 hc        1 MOL      0.014407
    146 H65        -4.1600   -1.3020   -2.6090 h1        1 MOL      0.100590
    147 H66        -5.6590   -0.7120   -3.4730 h1        1 MOL      0.100590
    148 N13        -4.5050   -2.3790    0.5990 n         1 MOL     -0.167571
    149 C50        -3.8120   -2.3780    1.8890 c3        1 MOL     -0.074547
    150 C51        -4.6000   -1.6180    2.9230 c         1 MOL      0.438150
    151 O21        -4.4690   -1.8600    4.0880 o         1 MOL     -0.573269
    152 C52        -2.4200   -1.7660    1.7770 c3        1 MOL      0.033442
    153 C53        -1.5490   -2.3600    0.6070 c3        1 MOL     -0.296731
    154 C54        -0.2380   -1.5970    0.3480 c         1 MOL      0.689822
    155 O22         0.8640   -2.0270   -0.1560 o         1 MOL     -0.730788
    156 O23        -0.2260   -0.4590    0.8120 o         1 MOL     -0.730788
    157 H67        -4.1960   -1.6310    0.0050 hn        1 MOL      0.172966
    158 H68        -3.5700   -3.3580    2.2980 h1        1 MOL      0.112332
    159 H69        -1.9830   -1.8400    2.7750 hc        1 MOL      0.036280
    160 H70        -2.6280   -0.7040    1.6240 hc        1 MOL      0.036280
    161 H71        -2.0850   -2.2050   -0.3360 hc        1 MOL      0.112572
    162 H72        -1.3710   -3.4280    0.7260 hc        1 MOL      0.112572
    163 N14        -5.4430   -0.6580    2.5510 n         1 MOL      0.045878
    164 C55        -6.4070    0.0660    3.4130 c3        1 MOL     -0.240876
    165 H73        -7.4170   -0.0880    3.0360 h1        1 MOL      0.084850
    166 H74        -6.3390   -0.3130    4.4330 h1        1 MOL      0.084850
    167 H75        -6.1740    1.1300    3.4050 h1        1 MOL      0.084850
    168 H76        -5.5210   -0.5400    1.5540 hn        1 MOL      0.072182
    169 Ca1         2.1600    0.2240   -0.2580 Ca        1 MOL      1.714971
    170 O24         1.5440    0.1590    2.5180 oh        1 MOL     -0.810812
    171 H77         0.7540   -0.3190    2.2640 ho        1 MOL      0.398219
    172 H78         1.5450    0.1300    3.4670 ho        1 MOL      0.398219
    173 O25         4.4660    0.8730    1.2200 oh        1 MOL     -0.810812
    174 H79         4.1510   -0.0220    1.3450 ho        1 MOL      0.398219
    175 H80         4.9340    1.0770    2.0320 ho        1 MOL      0.398219
@<TRIPOS>BOND
     1    1    2 1   
     2    1    4 1   
     3    1    5 1   
     4    1    6 1   
     5    2    3 2   
     6    2    7 1   
     7    7    8 1   
     8    7   15 1   
     9    8    9 1   
    10    8   11 1   
    11    8   16 1   
    12    9   10 2   
    13    9   19 1   
    14   11   12 1   
    15   11   17 1   
    16   11   18 1   
    17   12   13 1   
    18   12   14 1   
    19   19   20 1   
    20   19   24 1   
    21   20   21 1   
    22   20   23 1   
    23   20   25 1   
    24   21   22 2   
    25   21   29 1   
    26   23   26 1   
    27   23   27 1   
    28   23   28 1   
    29   29   30 1   
    30   29   37 1   
    31   30   31 1   
    32   30   33 1   
    33   30   38 1   
    34   31   32 2   
    35   31   41 1   
    36   33   34 1   
    37   33   39 1   
    38   33   40 1   
    39   34   35 1   
    40   34   36 1   
    41   41   42 1   
    42   41   45 1   
    43   42   43 1   
    44   42   46 1   
    45   42   47 1   
    46   43   44 2   
    47   43   48 1   
    48   48   49 1   
    49   48   56 1   
    50   49   50 1   
    51   49   52 1   
    52   49   57 1   
    53   50   51 2   
    54   50   62 1   
    55   52   53 1   
    56   52   58 1   
    57   52   59 1   
    58   53   54 1   
    59   53   55 2   
    60   54   60 1   
    61   54   61 1   
    62   62   63 1   
    63   62   66 1   
    64   63   64 1   
    65   63   67 1   
    66   63   68 1   
    67   64   65 2   
    68   64   69 1   
    69   69   70 1   
    70   69   76 1   
    71   70   71 1   
    72   70   73 1   
    73   70   77 1   
    74   71   72 2   
    75   71   83 1   
    76   73   74 1   
    77   73   75 1   
    78   73   78 1   
    79   74   80 1   
    80   74   81 1   
    81   74   82 1   
    82   75   79 1   
    83   83   84 1   
    84   83   91 1   
    85   84   85 1   
    86   84   87 1   
    87   84   92 1   
    88   85   86 2   
    89   85  102 1   
    90   87   88 1   
    91   87   89 1   
    92   87   93 1   
    93   88   90 1   
    94   88   94 1   
    95   88   95 1   
    96   89   96 1   
    97   89   97 1   
    98   89   98 1   
    99   90   99 1   
   100   90  100 1   
   101   90  101 1   
   102  102  103 1   
   103  102  110 1   
   104  103  104 1   
   105  103  106 1   
   106  103  111 1   
   107  104  105 2   
   108  104  114 1   
   109  106  107 1   
   110  106  112 1   
   111  106  113 1   
   112  107  108 1   
   113  107  109 1   
   114  114  115 1   
   115  114  125 1   
   116  115  116 1   
   117  115  118 1   
   118  115  126 1   
   119  116  117 2   
   120  116  134 1   
   121  118  119 1   
   122  118  127 1   
   123  118  128 1   
   124  119  120 ar  
   125  119  121 ar  
   126  120  122 ar  
   127  120  129 1   
   128  121  123 ar  
   129  121  130 1   
   130  122  124 ar  
   131  122  131 1   
   132  123  124 ar  
   133  123  132 1   
   134  124  133 1   
   135  134  135 1   
   136  134  140 1   
   137  135  136 1   
   138  135  138 1   
   139  135  141 1   
   140  136  137 2   
   141  136  148 1   
   142  138  139 1   
   143  138  142 1   
   144  138  143 1   
   145  139  140 1   
   146  139  144 1   
   147  139  145 1   
   148  140  146 1   
   149  140  147 1   
   150  148  149 1   
   151  148  157 1   
   152  149  150 1   
   153  149  152 1   
   154  149  158 1   
   155  150  151 2   
   156  150  163 1   
   157  152  153 1   
   158  152  159 1   
   159  152  160 1   
   160  153  154 1   
   161  153  161 1   
   162  153  162 1   
   163  154  155 1   
   164  154  156 1   
   165  163  164 1   
   166  163  168 1   
   167  164  165 1   
   168  164  166 1   
   169  164  167 1   
   170  170  171 1   
   171  170  172 1   
   172  173  174 1   
   173  173  175 1   
@<TRIPOS>SUBSTRUCTURE
     1 MOL         1 TEMP              0 ****  ****    0 ROOT
