@<TRIPOS>MOLECULE
MOL
  189   185     1     0     0
SMALL
resp


@<TRIPOS>ATOM
      1 C1         -1.3110    3.5460    5.6960 c3        1 MOL     -0.402982
      2 C2         -1.5780    2.9790    4.2390 c         1 MOL      0.649341
      3 O1         -0.8090    3.1790    3.3220 o         1 MOL     -0.599851
      4 H1         -2.1320    3.2590    6.3530 hc        1 MOL      0.101958
      5 H2         -0.3780    3.1340    6.0810 hc        1 MOL      0.101958
      6 H3         -1.2400    4.6320    5.6560 hc        1 MOL      0.101958
      7 N1         -2.5650    2.1370    4.0940 n         1 MOL     -0.462437
      8 C3         -2.8910    1.5770    2.7160 c3        1 MOL      0.037574
      9 C4         -3.3370    2.7870    1.8700 c         1 MOL      0.551903
     10 O2         -4.3960    3.4030    2.1620 o         1 MOL     -0.546582
     11 C5         -3.9990    0.5430    2.8990 c3        1 MOL     -0.187132
     12 C6         -4.4690   -0.1070    1.5590 c         1 MOL      0.834463
     13 O3         -5.4850   -0.7760    1.5840 o         1 MOL     -0.719299
     14 O4         -3.8440    0.0620    0.5320 o         1 MOL     -0.719299
     15 H4         -3.2540    2.0680    4.8200 hn        1 MOL      0.303160
     16 H5         -2.0610    1.0230    2.2780 h1        1 MOL     -0.016587
     17 H6         -4.9320    0.9400    3.3010 hc        1 MOL      0.040113
     18 H7         -3.4760   -0.2240    3.4720 hc        1 MOL      0.040113
     19 N2         -2.4060    3.2940    1.0290 n         1 MOL     -0.290177
     20 C7         -2.2620    4.6240    0.4330 c3        1 MOL     -0.038881
     21 C8         -3.3240    4.8290   -0.6720 c         1 MOL      0.456056
     22 O5         -3.7650    5.9520   -0.9680 o         1 MOL     -0.571284
     23 C9         -0.8210    4.8600   -0.0750 c3        1 MOL      0.040290
     24 C10        -0.7240    6.2230   -0.7700 c3        1 MOL     -0.156193
     25 C11        -0.8850    7.4360    0.1780 c3        1 MOL      0.050490
     26 C12        -0.6140    8.7970   -0.4270 c3        1 MOL      0.055733
     27 N3         -0.8040    9.9670    0.5030 n4        1 MOL     -0.348568
     28 H8         -1.5840    2.7350    0.8350 hn        1 MOL      0.321531
     29 H9         -2.5090    5.3710    1.1950 h1        1 MOL      0.062472
     30 H10        -0.4790    4.0780   -0.7560 hc        1 MOL      0.029661
     31 H11        -0.1520    4.7910    0.7890 hc        1 MOL      0.029661
     32 H12        -1.4330    6.2110   -1.5980 hc        1 MOL      0.053515
     33 H13         0.2440    6.2200   -1.2730 hc        1 MOL      0.053515
     34 H14        -0.2210    7.3610    1.0350 hc        1 MOL      0.015318
     35 H15        -1.8960    7.4060    0.5910 hc        1 MOL      0.015318
     36 H16        -1.3490    8.9050   -1.2340 hx        1 MOL      0.067124
     37 H17         0.4020    8.7730   -0.8130 hx        1 MOL      0.067124
     38 H18        -1.7980   10.0440    0.6560 hn        1 MOL      0.323318
     39 H19        -0.3400    9.8030    1.3780 hn        1 MOL      0.323318
     40 H20        -0.6020   10.8800    0.1240 hn        1 MOL      0.323318
     41 N4         -3.6710    3.7220   -1.3370 n         1 MOL     -0.184802
     42 C13        -4.7270    3.5680   -2.4280 c3        1 MOL      0.045246
     43 C14        -5.9270    2.6860   -2.0160 c         1 MOL      0.397929
     44 O6         -6.9010    2.8030   -2.7580 o         1 MOL     -0.510786
     45 C15        -4.0200    3.0420   -3.6830 c3        1 MOL     -0.195257
     46 C16        -3.1060    1.9270   -3.4060 c         1 MOL      0.821346
     47 O7         -2.2540    1.6180   -4.2660 o         1 MOL     -0.719656
     48 O8         -3.2160    1.2200   -2.3830 o         1 MOL     -0.719656
     49 H21        -3.2770    2.8200   -1.1350 hn        1 MOL     -0.002793
     50 H22        -5.1260    4.5540   -2.6670 h1        1 MOL      0.070315
     51 H23        -3.4730    3.8850   -4.1040 hc        1 MOL      0.058963
     52 H24        -4.8000    2.7060   -4.3710 hc        1 MOL      0.058963
     53 N5         -5.8860    2.0540   -0.8200 n         1 MOL      0.073360
     54 C17        -7.0400    1.3050   -0.3010 c3        1 MOL     -0.367377
     55 C18        -7.3890    0.0440   -1.1150 c         1 MOL      0.702162
     56 O9         -8.3890    0.0760   -1.9000 o         1 MOL     -0.568337
     57 H25        -5.1400    2.2860   -0.1850 hn        1 MOL      0.029200
     58 H26        -7.8610    2.0080   -0.2550 h1        1 MOL      0.133215
     59 H27        -6.7780    1.0830    0.7290 h1        1 MOL      0.133215
     60 N6         -6.6330   -1.0630   -0.9420 n         1 MOL     -0.535198
     61 C19        -6.7160   -2.2450   -1.6490 c3        1 MOL      0.251588
     62 C20        -6.6490   -3.4860   -0.7720 c         1 MOL      0.301399
     63 O10        -6.9790   -4.6080   -1.2300 o         1 MOL     -0.536553
     64 C21        -5.6960   -2.3870   -2.7610 c3        1 MOL     -0.205924
     65 C22        -4.3030   -2.0750   -2.3780 c         1 MOL      0.683641
     66 O11        -3.4760   -1.4860   -3.1580 o         1 MOL     -0.672775
     67 O12        -3.7890   -2.4280   -1.3070 o         1 MOL     -0.672775
     68 H28        -5.8460   -0.9850   -0.3100 hn        1 MOL      0.172002
     69 H29        -7.6890   -2.3110   -2.1380 h1        1 MOL      0.041766
     70 H30        -5.9630   -1.5850   -3.4470 hc        1 MOL      0.076171
     71 H31        -5.8000   -3.3080   -3.3330 hc        1 MOL      0.076171
     72 N7         -6.2660   -3.4110    0.4570 n         1 MOL     -0.103465
     73 C23        -6.0800   -4.4400    1.4450 c3        1 MOL     -0.192567
     74 C24        -4.7090   -5.1230    1.3930 c         1 MOL      0.633518
     75 O13        -4.6110   -6.2830    1.7890 o         1 MOL     -0.582864
     76 H32        -5.8370   -2.5420    0.7510 hn        1 MOL      0.222824
     77 H33        -6.8670   -5.1660    1.2300 h1        1 MOL      0.090304
     78 H34        -6.3000   -3.9790    2.4110 h1        1 MOL      0.090304
     79 N8         -3.6700   -4.3770    0.9380 n         1 MOL     -0.369392
     80 C25        -2.2320   -4.8900    0.7010 c3        1 MOL     -0.237261
     81 C26        -1.2520   -3.7480    0.9100 c         1 MOL      0.468084
     82 O14        -1.4360   -2.7330    0.4000 o         1 MOL     -0.516871
     83 C27        -2.0700   -5.5100   -0.7090 c3        1 MOL      0.642828
     84 C28        -2.2180   -6.9910   -0.7590 c3        1 MOL     -0.527531
     85 O15        -2.9370   -4.9160   -1.5940 oh        1 MOL     -0.671088
     86 H35        -3.9510   -3.4590    0.6190 hn        1 MOL      0.251053
     87 H36        -2.1490   -5.6540    1.4800 h1        1 MOL      0.097113
     88 H37        -1.0660   -5.2820   -1.0470 h1        1 MOL     -0.098105
     89 H38        -2.8980   -3.9620   -1.5610 ho        1 MOL      0.483180
     90 H39        -1.3600   -7.4670   -0.2710 hc        1 MOL      0.130416
     91 H40        -3.1350   -7.3090   -0.2730 hc        1 MOL      0.130416
     92 H41        -2.2550   -7.2580   -1.8140 hc        1 MOL      0.130416
     93 N9         -0.1830   -3.8910    1.7100 n         1 MOL     -0.298608
     94 C29         0.9020   -2.9800    1.9090 c3        1 MOL      0.047052
     95 C30         2.1290   -3.4150    1.0610 c         1 MOL      0.323180
     96 O16         2.7080   -4.4890    1.1930 o         1 MOL     -0.504490
     97 C31         1.3150   -2.8990    3.4050 c3        1 MOL      0.056745
     98 C32         0.1940   -2.4900    4.2900 c3        1 MOL     -0.160961
     99 C33         2.4280   -1.7780    3.6140 c3        1 MOL     -0.167880
    100 C34        -0.5790   -1.2570    3.8940 c3        1 MOL     -0.063541
    101 H42        -0.0070   -4.7990    2.1090 hn        1 MOL      0.249614
    102 H43         0.6500   -1.9680    1.5930 h1        1 MOL     -0.018923
    103 H44         1.6490   -3.8810    3.7580 hc        1 MOL      0.029082
    104 H45         0.5570   -2.3330    5.3040 hc        1 MOL      0.042321
    105 H46        -0.5000   -3.3280    4.3680 hc        1 MOL      0.042321
    106 H47         2.6940   -1.8580    4.6710 hc        1 MOL      0.042908
    107 H48         3.3170   -2.0120    3.0340 hc        1 MOL      0.042908
    108 H49         2.0250   -0.7980    3.3690 hc        1 MOL      0.042908
    109 H50        -1.1490   -0.7930    4.6980 hc        1 MOL      0.043862
    110 H51         0.0800   -0.4030    3.7240 hc        1 MOL      0.043862
    111 H52        -1.2550   -1.5240    3.0800 hc        1 MOL      0.043862
    112 N10         2.4460   -2.5530    0.0770 n         1 MOL     -0.049192
    113 C35         3.6710   -2.7240   -0.7090 c3        1 MOL     -0.207588
    114 C36         4.9660   -2.3720    0.1010 c         1 MOL      0.316368
    115 O17         4.9720   -1.7200    1.1510 o         1 MOL     -0.210728
    116 C37         3.6920   -1.8100   -1.9610 c3        1 MOL      0.255683
    117 C38         2.5810   -2.1280   -2.9520 c3        1 MOL     -0.296662
    118 O18         3.5430   -0.4500   -1.5510 oh        1 MOL     -0.577231
    119 H53         1.9380   -1.6800   -0.0090 hn        1 MOL      0.210573
    120 H54         3.7040   -3.7720   -1.0050 h1        1 MOL      0.119040
    121 H55         4.6310   -1.9940   -2.4840 h1        1 MOL      0.014471
    122 H56         2.7460   -0.3530   -1.0360 ho        1 MOL      0.353566
    123 H57         2.4710   -1.3260   -3.6860 hc        1 MOL      0.090440
    124 H58         2.7530   -2.9940   -3.5800 hc        1 MOL      0.090440
    125 H59         1.6450   -2.2430   -2.4160 hc        1 MOL      0.090440
    126 N11         6.1560   -2.7160   -0.4600 n         1 MOL     -0.297776
    127 C39         7.4930   -2.1940   -0.0960 c3        1 MOL     -0.222738
    128 C40         7.6740   -0.6570    0.0620 c         1 MOL      0.265075
    129 O19         8.6270   -0.2540    0.7960 o         1 MOL     -0.509399
    130 C41         8.6260   -2.5590   -1.0990 c3        1 MOL      0.317605
    131 C42         8.8420   -4.0340   -1.2830 c3        1 MOL     -0.502091
    132 O20         8.4310   -1.9960   -2.3680 oh        1 MOL     -0.611556
    133 H60         6.1530   -3.2320   -1.3320 hn        1 MOL      0.263131
    134 H61         7.8370   -2.6710    0.8260 h1        1 MOL      0.179782
    135 H62         9.5640   -2.1080   -0.7730 h1        1 MOL      0.041245
    136 H63         8.8940   -2.4910   -3.0600 ho        1 MOL      0.399419
    137 H64         9.3990   -4.2910   -2.1760 hc        1 MOL      0.147013
    138 H65         9.3360   -4.3610   -0.3660 hc        1 MOL      0.147013
    139 H66         7.8240   -4.4240   -1.3710 hc        1 MOL      0.147013
    140 N12         6.8900    0.1830   -0.6160 n         1 MOL      0.138517
    141 C43         6.9050    1.6620   -0.3860 c3        1 MOL      0.117773
    142 C44         6.0700    1.9810    0.8030 c         1 MOL      0.231669
    143 O21         6.4760    2.8090    1.6880 o         1 MOL     -0.472075
    144 C45         6.4400    2.3870   -1.6080 c3        1 MOL     -0.279555
    145 C46         7.1660    1.7990   -2.8530 c3        1 MOL      0.055452
    146 C47         8.7000    1.8340   -2.8050 c3        1 MOL      0.042977
    147 C48         9.2490    1.2500   -4.0800 c3        1 MOL      0.064672
    148 N13        10.7880    1.2830   -4.1070 n4        1 MOL     -0.301164
    149 H67         6.3690   -0.3240   -1.3230 hn        1 MOL      0.186922
    150 H68         7.8820    2.0100   -0.0610 h1        1 MOL      0.026653
    151 H69         6.7330    3.4350   -1.6040 hc        1 MOL      0.115143
    152 H70         5.3620    2.3470   -1.7260 hc        1 MOL      0.115143
    153 H71         6.8510    2.2970   -3.7690 hc        1 MOL     -0.005135
    154 H72         6.8970    0.7460   -2.9420 hc        1 MOL     -0.005135
    155 H73         8.9800    1.2520   -1.9280 hc        1 MOL      0.006123
    156 H74         9.0220    2.8770   -2.7430 hc        1 MOL      0.006123
    157 H75         8.8460    1.7840   -4.9370 hx        1 MOL      0.050102
    158 H76         8.9670    0.2000   -4.0020 hx        1 MOL      0.050102
    159 H77        11.0890    0.6790   -3.3570 hn        1 MOL      0.284574
    160 H78        11.1940    0.8490   -4.9270 hn        1 MOL      0.284574
    161 H79        11.1890    2.1920   -3.9430 hn        1 MOL      0.284574
    162 N14         4.8710    1.3790    0.8520 n         1 MOL     -0.027418
    163 C49         3.9070    1.7320    1.8960 c3        1 MOL     -0.272927
    164 C50         4.3360    1.1940    3.2940 c         1 MOL      0.502368
    165 O22         4.1220    1.9280    4.2060 o         1 MOL     -0.529861
    166 C51         2.4950    1.1950    1.5670 c3        1 MOL      0.007269
    167 C52         1.7520    1.8740    0.3950 c3        1 MOL      0.093167
    168 C53         0.5380    0.9420    0.0250 c         1 MOL      0.434734
    169 O23         0.7030   -0.2390   -0.3250 o         1 MOL     -0.595837
    170 O24        -0.6190    1.3410    0.1380 o         1 MOL     -0.595837
    171 H80         4.6570    0.6820    0.1550 hn        1 MOL      0.017789
    172 H81         3.8600    2.8260    1.8720 h1        1 MOL      0.130165
    173 H82         1.8600    1.3760    2.4440 hc        1 MOL      0.106760
    174 H83         2.6340    0.1500    1.2980 hc        1 MOL      0.106760
    175 H84         2.3960    2.1240   -0.4490 hc        1 MOL     -0.032846
    176 H85         1.4030    2.8470    0.7470 hc        1 MOL     -0.032846
    177 N15         5.0500    0.0620    3.3540 n         1 MOL     -0.003227
    178 C54         5.6840   -0.4340    4.5200 c3        1 MOL     -0.216655
    179 H86         6.4580    0.2650    4.8380 h1        1 MOL      0.080856
    180 H87         4.9470   -0.5440    5.3150 h1        1 MOL      0.080856
    181 H88         6.1350   -1.4020    4.3060 h1        1 MOL      0.080856
    182 H89         5.0210   -0.5880    2.5810 hn        1 MOL     -0.006557
    183 Ca1        -1.9920   -0.5940   -1.0510 Ca        1 MOL      1.705128
    184 O25        -0.3680    0.3700   -3.0730 oh        1 MOL     -0.820114
    185 H90         0.4020    0.7780   -3.4760 ho        1 MOL      0.378205
    186 H91        -1.1090    0.8600   -3.4320 ho        1 MOL      0.378205
    187 O26        -0.8920   -2.7380   -2.3740 oh        1 MOL     -0.820114
    188 H92        -1.4270   -3.1430   -3.0530 ho        1 MOL      0.378205
    189 H93        -0.0710   -2.5200   -2.8150 ho        1 MOL      0.378205
@<TRIPOS>BOND
     1    1    2 1   
     2    1    4 1   
     3    1    5 1   
     4    1    6 1   
     5    2    3 2   
     6    2    7 1   
     7    7    8 1   
     8    7   15 1   
     9    8    9 1   
    10    8   11 1   
    11    8   16 1   
    12    9   10 2   
    13    9   19 1   
    14   11   12 1   
    15   11   17 1   
    16   11   18 1   
    17   12   13 1   
    18   12   14 1   
    19   19   20 1   
    20   19   28 1   
    21   20   21 1   
    22   20   23 1   
    23   20   29 1   
    24   21   22 2   
    25   21   41 1   
    26   23   24 1   
    27   23   30 1   
    28   23   31 1   
    29   24   25 1   
    30   24   32 1   
    31   24   33 1   
    32   25   26 1   
    33   25   34 1   
    34   25   35 1   
    35   26   27 1   
    36   26   36 1   
    37   26   37 1   
    38   27   38 1   
    39   27   39 1   
    40   27   40 1   
    41   41   42 1   
    42   41   49 1   
    43   42   43 1   
    44   42   45 1   
    45   42   50 1   
    46   43   44 2   
    47   43   53 1   
    48   45   46 1   
    49   45   51 1   
    50   45   52 1   
    51   46   47 1   
    52   46   48 1   
    53   53   54 1   
    54   53   57 1   
    55   54   55 1   
    56   54   58 1   
    57   54   59 1   
    58   55   56 2   
    59   55   60 1   
    60   60   61 1   
    61   60   68 1   
    62   61   62 1   
    63   61   64 1   
    64   61   69 1   
    65   62   63 2   
    66   62   72 1   
    67   64   65 1   
    68   64   70 1   
    69   64   71 1   
    70   65   66 1   
    71   65   67 1   
    72   72   73 1   
    73   72   76 1   
    74   73   74 1   
    75   73   77 1   
    76   73   78 1   
    77   74   75 2   
    78   74   79 1   
    79   79   80 1   
    80   79   86 1   
    81   80   81 1   
    82   80   83 1   
    83   80   87 1   
    84   81   82 2   
    85   81   93 1   
    86   83   84 1   
    87   83   85 1   
    88   83   88 1   
    89   84   90 1   
    90   84   91 1   
    91   84   92 1   
    92   85   89 1   
    93   93   94 1   
    94   93  101 1   
    95   94   95 1   
    96   94   97 1   
    97   94  102 1   
    98   95   96 2   
    99   95  112 1   
   100   97   98 1   
   101   97   99 1   
   102   97  103 1   
   103   98  100 1   
   104   98  104 1   
   105   98  105 1   
   106   99  106 1   
   107   99  107 1   
   108   99  108 1   
   109  100  109 1   
   110  100  110 1   
   111  100  111 1   
   112  112  113 1   
   113  112  119 1   
   114  113  114 1   
   115  113  116 1   
   116  113  120 1   
   117  114  115 2   
   118  114  126 1   
   119  116  117 1   
   120  116  118 1   
   121  116  121 1   
   122  117  123 1   
   123  117  124 1   
   124  117  125 1   
   125  118  122 1   
   126  126  127 1   
   127  126  133 1   
   128  127  128 1   
   129  127  130 1   
   130  127  134 1   
   131  128  129 2   
   132  128  140 1   
   133  130  131 1   
   134  130  132 1   
   135  130  135 1   
   136  131  137 1   
   137  131  138 1   
   138  131  139 1   
   139  132  136 1   
   140  140  141 1   
   141  140  149 1   
   142  141  142 1   
   143  141  144 1   
   144  141  150 1   
   145  142  143 2   
   146  142  162 1   
   147  144  145 1   
   148  144  151 1   
   149  144  152 1   
   150  145  146 1   
   151  145  153 1   
   152  145  154 1   
   153  146  147 1   
   154  146  155 1   
   155  146  156 1   
   156  147  148 1   
   157  147  157 1   
   158  147  158 1   
   159  148  159 1   
   160  148  160 1   
   161  148  161 1   
   162  162  163 1   
   163  162  171 1   
   164  163  164 1   
   165  163  166 1   
   166  163  172 1   
   167  164  165 2   
   168  164  177 1   
   169  166  167 1   
   170  166  173 1   
   171  166  174 1   
   172  167  168 1   
   173  167  175 1   
   174  167  176 1   
   175  168  169 1   
   176  168  170 1   
   177  177  178 1   
   178  177  182 1   
   179  178  179 1   
   180  178  180 1   
   181  178  181 1   
   182  184  185 1   
   183  184  186 1   
   184  187  188 1   
   185  187  189 1   
@<TRIPOS>SUBSTRUCTURE
     1 MOL         1 TEMP              0 ****  ****    0 ROOT
