@<TRIPOS>MOLECULE
MOL
  189   185     1     0     0
SMALL
resp


@<TRIPOS>ATOM
      1 C1         -0.7330    5.1930    5.3650 c3        1 MOL     -0.396285
      2 C2         -1.3590    4.3690    4.2340 c         1 MOL      0.688943
      3 O1         -1.5170    3.0970    4.2510 o         1 MOL     -0.625720
      4 H1         -0.0550    4.5620    5.9400 hc        1 MOL      0.107088
      5 H2         -0.1790    6.0290    4.9410 hc        1 MOL      0.107088
      6 H3         -1.5200    5.5700    6.0180 hc        1 MOL      0.107088
      7 N1         -1.6620    5.0900    3.1360 n         1 MOL     -0.594578
      8 C3         -2.2750    4.4500    1.9420 c3        1 MOL      0.295802
      9 C4         -2.0140    5.1810    0.6020 c         1 MOL      0.346291
     10 O2         -2.0040    6.4110    0.5700 o         1 MOL     -0.572032
     11 C5         -3.7850    4.2870    2.1640 c3        1 MOL     -0.237745
     12 C6         -4.4640    3.6150    0.9390 c         1 MOL      0.674548
     13 O3         -3.9210    2.6630    0.3650 o         1 MOL     -0.664915
     14 O4         -5.6210    4.0030    0.6860 o         1 MOL     -0.664915
     15 H4         -1.5670    6.0920    3.1560 hn        1 MOL      0.312243
     16 H5         -1.7690    3.4890    1.8590 h1        1 MOL      0.061840
     17 H6         -4.2270    5.2420    2.4200 hc        1 MOL      0.047077
     18 H7         -4.0520    3.6230    2.9840 hc        1 MOL      0.047077
     19 N2         -1.9150    4.4190   -0.4890 n         1 MOL     -0.152905
     20 C7         -1.7640    4.9790   -1.8530 c3        1 MOL     -0.002950
     21 C8         -2.8200    4.5410   -2.8510 c         1 MOL      0.442688
     22 O5         -3.0670    5.2210   -3.8760 o         1 MOL     -0.563911
     23 C9         -0.3600    4.6040   -2.3070 c3        1 MOL      0.084798
     24 C10         0.7730    5.0780   -1.3420 c3        1 MOL      0.267135
     25 C11         0.0740    4.8170   -3.7740 c3        1 MOL     -0.274426
     26 C12         1.3350    6.5250   -1.5380 c3        1 MOL     -0.498027
     27 H8         -1.9770    3.4060   -0.3690 hn        1 MOL      0.286715
     28 H9         -1.7520    6.0720   -1.8470 h1        1 MOL      0.070996
     29 H10        -0.2890    3.5220   -2.1780 hc        1 MOL     -0.015454
     30 H11         1.6070    4.3750   -1.2490 hc        1 MOL     -0.024433
     31 H12         0.4380    4.8840   -0.3280 hc        1 MOL     -0.024433
     32 H13        -0.0440    5.8610   -4.0470 hc        1 MOL      0.067584
     33 H14         1.1510    4.6210   -3.8340 hc        1 MOL      0.067584
     34 H15        -0.5230    4.1630   -4.3990 hc        1 MOL      0.067584
     35 H16         1.8580    6.7650   -0.6020 hc        1 MOL      0.108453
     36 H17         2.0960    6.4480   -2.3110 hc        1 MOL      0.108453
     37 H18         0.4940    7.1950   -1.7010 hc        1 MOL      0.108453
     38 N3         -3.5750    3.4700   -2.5500 n         1 MOL     -0.280785
     39 C13        -4.3440    2.7310   -3.5820 c3        1 MOL      0.020810
     40 C14        -5.6450    1.9470   -3.1060 c         1 MOL      0.346576
     41 O6         -6.3320    1.3180   -3.9140 o         1 MOL     -0.545687
     42 C15        -3.3850    1.7540   -4.2320 c3        1 MOL     -0.216620
     43 C16        -2.7480    0.7080   -3.2420 c         1 MOL      0.767738
     44 O7         -3.1220    0.5800   -2.0620 o         1 MOL     -0.697895
     45 O8         -1.8310    0.0080   -3.7650 o         1 MOL     -0.697895
     46 H19        -3.3660    3.1010   -1.6360 hn        1 MOL      0.120553
     47 H20        -4.6590    3.3840   -4.3910 h1        1 MOL      0.101028
     48 H21        -2.7030    2.4800   -4.6720 hc        1 MOL      0.066072
     49 H22        -3.7880    1.1750   -5.0670 hc        1 MOL      0.066072
     50 N4         -5.8980    1.9760   -1.7930 n         1 MOL      0.021016
     51 C17        -7.1160    1.5760   -1.1160 c3        1 MOL     -0.319384
     52 C18        -7.3970    0.0370   -1.2090 c         1 MOL      0.569366
     53 O9         -8.4970   -0.4570   -1.1130 o         1 MOL     -0.639027
     54 H23        -5.2820    2.5870   -1.2730 hn        1 MOL      0.077263
     55 H24        -7.9950    2.0550   -1.5470 h1        1 MOL      0.125989
     56 H25        -6.9180    1.8370   -0.0770 h1        1 MOL      0.125989
     57 N5         -6.3780   -0.7490   -1.5230 n         1 MOL     -0.060190
     58 C19        -6.5420   -2.1080   -1.9360 c3        1 MOL     -0.076480
     59 C20        -6.7890   -3.1310   -0.8460 c         1 MOL      0.386048
     60 O10        -6.9210   -4.3110   -1.1490 o         1 MOL     -0.522194
     61 C21        -5.2760   -2.4650   -2.6490 c3        1 MOL     -0.160153
     62 C22        -4.0430   -2.5060   -1.7010 c         1 MOL      0.656422
     63 O11        -4.0280   -1.9030   -0.6150 o         1 MOL     -0.653502
     64 O12        -3.0730   -3.1680   -2.1600 o         1 MOL     -0.653502
     65 H26        -5.4420   -0.3760   -1.5060 hn        1 MOL      0.034694
     66 H27        -7.3690   -2.1050   -2.6350 h1        1 MOL      0.105882
     67 H28        -5.1830   -1.7020   -3.4260 hc        1 MOL      0.073633
     68 H29        -5.3810   -3.3570   -3.2580 hc        1 MOL      0.073633
     69 N6         -6.8060   -2.6850    0.3940 n         1 MOL     -0.136262
     70 C23        -6.9000   -3.4910    1.5900 c3        1 MOL     -0.336035
     71 C24        -5.5310   -4.1570    2.0310 c         1 MOL      0.657520
     72 O13        -5.5610   -4.8900    2.9730 o         1 MOL     -0.636236
     73 H30        -6.9490   -1.6900    0.4270 hn        1 MOL      0.241315
     74 H31        -7.5980   -4.3100    1.4470 h1        1 MOL      0.122477
     75 H32        -7.2020   -2.8450    2.4220 h1        1 MOL      0.122477
     76 N7         -4.4770   -3.9290    1.3550 n         1 MOL     -0.248474
     77 C25        -3.0940   -4.4080    1.6280 c3        1 MOL      0.052594
     78 C26        -2.1950   -3.2700    2.0540 c         1 MOL      0.605070
     79 O14        -2.5740   -2.1100    1.9580 o         1 MOL     -0.626838
     80 C27        -2.4840   -5.1900    0.5080 c3        1 MOL      0.217988
     81 C28        -3.4680   -5.9700   -0.3520 c3        1 MOL     -0.498733
     82 C29        -2.6690   -6.6780   -1.4800 c         1 MOL      0.729141
     83 N8         -2.3600   -5.9630   -2.5620 n         1 MOL     -0.788171
     84 O15        -2.2960   -7.8300   -1.4980 o         1 MOL     -0.624538
     85 H33        -4.5910   -3.3550    0.5350 hn        1 MOL      0.073050
     86 H34        -3.0710   -5.0960    2.4760 h1        1 MOL      0.016485
     87 H35        -1.7190   -5.8400    0.9300 hc        1 MOL     -0.013516
     88 H36        -1.9640   -4.5360   -0.1920 hc        1 MOL     -0.013516
     89 H37        -4.1730   -5.3000   -0.8340 hc        1 MOL      0.143573
     90 H38        -3.9920   -6.6760    0.2870 hc        1 MOL      0.143573
     91 H39        -2.6150   -4.9890   -2.4720 hn        1 MOL      0.358792
     92 H40        -1.7770   -6.2800   -3.3160 hn        1 MOL      0.358792
     93 N9         -1.0250   -3.6170    2.5740 n         1 MOL     -0.535757
     94 C30         0.1120   -2.6980    2.7690 c3        1 MOL      0.243721
     95 C31         1.2280   -3.1760    1.8740 c         1 MOL      0.368013
     96 O16         1.5360   -4.3380    1.9520 o         1 MOL     -0.587243
     97 C32         0.5200   -2.5630    4.2270 c3        1 MOL      0.176813
     98 C33         1.9140   -1.9920    4.5200 c3        1 MOL     -0.344130
     99 C34        -0.5080   -1.5660    4.9210 c3        1 MOL     -0.344130
    100 H41        -0.9170   -4.5280    2.9940 hn        1 MOL      0.283310
    101 H42        -0.1940   -1.6850    2.4880 h1        1 MOL     -0.002447
    102 H43         0.4560   -3.5190    4.7360 hc        1 MOL     -0.008403
    103 H44         2.7160   -2.7030    4.3610 hc        1 MOL      0.080987
    104 H45         2.2210   -1.2620    3.7740 hc        1 MOL      0.080987
    105 H46         2.0370   -1.5030    5.4790 hc        1 MOL      0.080987
    106 H47        -0.4570   -0.5700    4.4740 hc        1 MOL      0.080987
    107 H48        -1.4970   -2.0210    4.8540 hc        1 MOL      0.080987
    108 H49        -0.2930   -1.4090    5.9870 hc        1 MOL      0.080987
    109 N10         1.8100   -2.3160    1.1060 n         1 MOL     -0.151564
    110 C35         3.0170   -2.5230    0.3110 c3        1 MOL      0.360392
    111 C36         4.2430   -1.9550    0.9870 c         1 MOL      0.275828
    112 O17         4.0670   -1.1580    1.8780 o         1 MOL     -0.412081
    113 C37         2.8290   -1.9380   -1.0680 c3        1 MOL     -0.729401
    114 C38         4.0420   -1.8140   -1.9280 c         1 MOL      0.853300
    115 N11         4.5750   -2.9490   -2.3850 n         1 MOL     -0.854974
    116 O18         4.5760   -0.7830   -2.1650 o         1 MOL     -0.475719
    117 H50         1.4030   -1.3970    1.1420 hn        1 MOL      0.210604
    118 H51         3.1950   -3.5920    0.2530 h1        1 MOL     -0.006540
    119 H52         2.5200   -0.8970   -0.9590 hc        1 MOL      0.194009
    120 H53         1.9560   -2.3520   -1.5660 hc        1 MOL      0.194009
    121 H54         4.0520   -3.7800   -2.1290 hn        1 MOL      0.373361
    122 H55         5.2900   -3.0180   -3.0990 hn        1 MOL      0.373361
    123 N12         5.4690   -2.4170    0.5820 n         1 MOL     -0.295725
    124 C39         6.7470   -1.9700    1.2310 c3        1 MOL      0.091913
    125 C40         7.0170   -0.4460    1.1490 c         1 MOL      0.463225
    126 O19         7.7110    0.0980    1.9890 o         1 MOL     -0.566942
    127 C41         7.9650   -2.7820    0.7930 c3        1 MOL     -0.138943
    128 C42         8.2350   -2.8900   -0.7400 ca        1 MOL      0.084712
    129 C43         9.1330   -1.9890   -1.3660 ca        1 MOL     -0.280132
    130 C44         7.4870   -3.8210   -1.4190 ca        1 MOL     -0.280132
    131 C45         9.3020   -2.0390   -2.7690 ca        1 MOL     -0.095480
    132 C46         7.5820   -3.8540   -2.8490 ca        1 MOL     -0.095480
    133 C47         8.5150   -3.0030   -3.4920 ca        1 MOL      0.187083
    134 O20         8.5560   -2.9260   -4.8510 oh        1 MOL     -0.515757
    135 H56         5.5150   -3.0500   -0.2050 hn        1 MOL      0.141226
    136 H57         6.7540   -2.2060    2.2990 h1        1 MOL      0.059517
    137 H58         7.9490   -3.7250    1.3410 hc        1 MOL      0.053045
    138 H59         8.7640   -2.2400    1.3100 hc        1 MOL      0.053045
    139 H60         9.6900   -1.2970   -0.7620 ha        1 MOL      0.170333
    140 H61         6.9280   -4.5530   -0.8450 ha        1 MOL      0.170333
    141 H62         9.9540   -1.3890   -3.3320 ha        1 MOL      0.109170
    142 H63         7.0670   -4.5960   -3.4300 ha        1 MOL      0.109170
    143 H64         9.2110   -2.3000   -5.1800 ho        1 MOL      0.416387
    144 N13         6.4240    0.2120    0.1730 n         1 MOL     -0.107062
    145 C48         6.3370    1.6770    0.0530 c3        1 MOL     -0.471554
    146 C49         5.3570    2.3630    1.0190 c         1 MOL      0.535075
    147 O21         5.5570    3.5050    1.2640 o         1 MOL     -0.518366
    148 C50         6.1430    2.0660   -1.3960 c3        1 MOL      0.313863
    149 C51         7.4820    2.0480   -2.2180 c3        1 MOL     -0.119853
    150 C52         7.2410    2.6960   -3.5420 c         1 MOL      0.568805
    151 O22         6.6730    3.8190   -3.6370 o         1 MOL     -0.700226
    152 O23         7.2840    1.9150   -4.5170 o         1 MOL     -0.700226
    153 H65         5.8710   -0.2930   -0.5040 hn        1 MOL      0.243736
    154 H66         7.3410    2.0750    0.2310 h1        1 MOL      0.161085
    155 H67         5.8810    3.1230   -1.4050 hc        1 MOL     -0.012273
    156 H68         5.4140    1.4300   -1.8880 hc        1 MOL     -0.012273
    157 H69         7.8660    1.0260   -2.2400 hc        1 MOL     -0.014158
    158 H70         8.2530    2.6770   -1.7710 hc        1 MOL     -0.014158
    159 N14         4.2960    1.6950    1.4600 n         1 MOL     -0.242436
    160 C53         3.3180    2.3040    2.3430 c3        1 MOL     -0.026746
    161 C54         3.6600    2.0340    3.8230 c         1 MOL      0.360710
    162 O24         3.2400    2.6510    4.7330 o         1 MOL     -0.527328
    163 C55         1.9600    1.6120    2.1310 c3        1 MOL     -0.054323
    164 C56         1.2130    2.1440    0.9280 c3        1 MOL      0.178142
    165 C57        -0.0870    1.3840    0.7510 c         1 MOL      0.733890
    166 O25        -0.2180    0.1510    1.0330 o         1 MOL     -0.783257
    167 O26        -1.0390    1.9450    0.1880 o         1 MOL     -0.783257
    168 H71         4.1470    0.7700    1.0760 hn        1 MOL      0.135065
    169 H72         3.2630    3.3920    2.2880 h1        1 MOL      0.090702
    170 H73         1.3450    1.9430    2.9630 hc        1 MOL      0.050786
    171 H74         2.1140    0.5400    2.1770 hc        1 MOL      0.050786
    172 H75         1.8380    2.0940    0.0390 hc        1 MOL     -0.072716
    173 H76         0.8690    3.1650    1.0320 hc        1 MOL     -0.072716
    174 N15         4.6460    1.1680    4.0300 n         1 MOL     -0.084862
    175 C58         5.2310    0.7040    5.3030 c3        1 MOL     -0.097975
    176 H77         5.1400   -0.3800    5.3710 h1        1 MOL      0.047349
    177 H78         6.2850    0.9830    5.3420 h1        1 MOL      0.047349
    178 H79         4.7020    1.1660    6.1370 h1        1 MOL      0.047349
    179 H80         4.9950    0.7010    3.2000 hn        1 MOL      0.133739
    180 Ca1        -2.8130    0.1060    0.4340 Ca        1 MOL      1.784131
    181 O27        -2.6580    1.1050    2.8690 oh        1 MOL     -0.864445
    182 H81        -2.9840    0.5750    3.5930 ho        1 MOL      0.407820
    183 H82        -2.1320    1.7950    3.2810 ho        1 MOL      0.407820
    184 O28        -5.4040   -0.1420    1.8920 oh        1 MOL     -0.864445
    185 H83        -6.2600   -0.3980    2.2260 ho        1 MOL      0.407820
    186 H84        -4.9650    0.2600    2.6490 ho        1 MOL      0.407820
    187 O29        -1.1480   -1.4910   -1.4830 oh        1 MOL     -0.864445
    188 H85        -1.7350   -2.2380   -1.5710 ho        1 MOL      0.407820
    189 H86        -1.3900   -0.9090   -2.2060 ho        1 MOL      0.407820
@<TRIPOS>BOND
     1    1    2 1   
     2    1    4 1   
     3    1    5 1   
     4    1    6 1   
     5    2    3 2   
     6    2    7 1   
     7    7    8 1   
     8    7   15 1   
     9    8    9 1   
    10    8   11 1   
    11    8   16 1   
    12    9   10 2   
    13    9   19 1   
    14   11   12 1   
    15   11   17 1   
    16   11   18 1   
    17   12   13 1   
    18   12   14 1   
    19   19   20 1   
    20   19   27 1   
    21   20   21 1   
    22   20   23 1   
    23   20   28 1   
    24   21   22 2   
    25   21   38 1   
    26   23   24 1   
    27   23   25 1   
    28   23   29 1   
    29   24   26 1   
    30   24   30 1   
    31   24   31 1   
    32   25   32 1   
    33   25   33 1   
    34   25   34 1   
    35   26   35 1   
    36   26   36 1   
    37   26   37 1   
    38   38   39 1   
    39   38   46 1   
    40   39   40 1   
    41   39   42 1   
    42   39   47 1   
    43   40   41 2   
    44   40   50 1   
    45   42   43 1   
    46   42   48 1   
    47   42   49 1   
    48   43   44 1   
    49   43   45 1   
    50   50   51 1   
    51   50   54 1   
    52   51   52 1   
    53   51   55 1   
    54   51   56 1   
    55   52   53 2   
    56   52   57 1   
    57   57   58 1   
    58   57   65 1   
    59   58   59 1   
    60   58   61 1   
    61   58   66 1   
    62   59   60 2   
    63   59   69 1   
    64   61   62 1   
    65   61   67 1   
    66   61   68 1   
    67   62   63 1   
    68   62   64 1   
    69   69   70 1   
    70   69   73 1   
    71   70   71 1   
    72   70   74 1   
    73   70   75 1   
    74   71   72 2   
    75   71   76 1   
    76   76   77 1   
    77   76   85 1   
    78   77   78 1   
    79   77   80 1   
    80   77   86 1   
    81   78   79 2   
    82   78   93 1   
    83   80   81 1   
    84   80   87 1   
    85   80   88 1   
    86   81   82 1   
    87   81   89 1   
    88   81   90 1   
    89   82   83 1   
    90   82   84 2   
    91   83   91 1   
    92   83   92 1   
    93   93   94 1   
    94   93  100 1   
    95   94   95 1   
    96   94   97 1   
    97   94  101 1   
    98   95   96 2   
    99   95  109 1   
   100   97   98 1   
   101   97   99 1   
   102   97  102 1   
   103   98  103 1   
   104   98  104 1   
   105   98  105 1   
   106   99  106 1   
   107   99  107 1   
   108   99  108 1   
   109  109  110 1   
   110  109  117 1   
   111  110  111 1   
   112  110  113 1   
   113  110  118 1   
   114  111  112 2   
   115  111  123 1   
   116  113  114 1   
   117  113  119 1   
   118  113  120 1   
   119  114  115 1   
   120  114  116 2   
   121  115  121 1   
   122  115  122 1   
   123  123  124 1   
   124  123  135 1   
   125  124  125 1   
   126  124  127 1   
   127  124  136 1   
   128  125  126 2   
   129  125  144 1   
   130  127  128 1   
   131  127  137 1   
   132  127  138 1   
   133  128  129 ar  
   134  128  130 ar  
   135  129  131 ar  
   136  129  139 1   
   137  130  132 ar  
   138  130  140 1   
   139  131  133 ar  
   140  131  141 1   
   141  132  133 ar  
   142  132  142 1   
   143  133  134 1   
   144  134  143 1   
   145  144  145 1   
   146  144  153 1   
   147  145  146 1   
   148  145  148 1   
   149  145  154 1   
   150  146  147 2   
   151  146  159 1   
   152  148  149 1   
   153  148  155 1   
   154  148  156 1   
   155  149  150 1   
   156  149  157 1   
   157  149  158 1   
   158  150  151 1   
   159  150  152 1   
   160  159  160 1   
   161  159  168 1   
   162  160  161 1   
   163  160  163 1   
   164  160  169 1   
   165  161  162 2   
   166  161  174 1   
   167  163  164 1   
   168  163  170 1   
   169  163  171 1   
   170  164  165 1   
   171  164  172 1   
   172  164  173 1   
   173  165  166 1   
   174  165  167 1   
   175  174  175 1   
   176  174  179 1   
   177  175  176 1   
   178  175  177 1   
   179  175  178 1   
   180  181  182 1   
   181  181  183 1   
   182  184  185 1   
   183  184  186 1   
   184  187  188 1   
   185  187  189 1   
@<TRIPOS>SUBSTRUCTURE
     1 MOL         1 TEMP              0 ****  ****    0 ROOT
