@<TRIPOS>MOLECULE
MOL
  175   173     1     0     0
SMALL
resp


@<TRIPOS>ATOM
      1 C1          0.0420    4.1900    5.4620 c3        1 MOL     -0.484849
      2 C2         -0.5740    4.1220    4.0070 c         1 MOL      0.743365
      3 O1          0.1860    3.9270    3.0800 o         1 MOL     -0.547654
      4 H1          0.9800    3.6350    5.4860 hc        1 MOL      0.119917
      5 H2          0.2290    5.2300    5.7290 hc        1 MOL      0.119917
      6 H3         -0.6580    3.7520    6.1740 hc        1 MOL      0.119917
      7 N1         -1.9030    4.1580    3.7880 n         1 MOL     -0.672928
      8 C3         -2.5080    3.6640    2.4860 c3        1 MOL      0.114457
      9 C4         -2.7660    4.7920    1.4450 c         1 MOL      0.578323
     10 O2         -3.1600    5.9080    1.7920 o         1 MOL     -0.595066
     11 C5         -3.8710    2.9560    2.7290 c3        1 MOL     -0.176938
     12 C6         -4.5490    2.5320    1.4330 c         1 MOL      0.619980
     13 O3         -5.8070    2.7500    1.3440 o         1 MOL     -0.628584
     14 O4         -3.8730    1.9380    0.5580 o         1 MOL     -0.628584
     15 H4         -2.5630    4.4300    4.4960 hn        1 MOL      0.343609
     16 H5         -1.8510    2.9190    2.0410 h1        1 MOL      0.068048
     17 H6         -4.5390    3.6020    3.2780 hc        1 MOL      0.028558
     18 H7         -3.7440    2.0960    3.3770 hc        1 MOL      0.028558
     19 N2         -2.4830    4.5870    0.1670 n         1 MOL     -0.356224
     20 C7         -2.7330    5.5030   -0.9520 c3        1 MOL      0.205445
     21 C8         -3.5400    4.8520   -2.0950 c         1 MOL      0.540571
     22 O5         -3.8310    5.5920   -3.0090 o         1 MOL     -0.602151
     23 C9         -1.3780    6.0100   -1.3680 c3        1 MOL     -0.294479
     24 H8         -1.8840    3.8190   -0.0990 hn        1 MOL      0.225866
     25 H9         -3.3930    6.3090   -0.6100 h1        1 MOL      0.029605
     26 H10        -0.9980    6.6190   -0.5430 hc        1 MOL      0.069218
     27 H11        -0.6970    5.2760   -1.7800 hc        1 MOL      0.069218
     28 H12        -1.4840    6.7220   -2.1850 hc        1 MOL      0.069218
     29 N3         -3.9910    3.6150   -1.9580 n         1 MOL     -0.300701
     30 C10        -4.7890    2.9530   -2.9490 c3        1 MOL      0.020154
     31 C11        -5.9890    2.0770   -2.5400 c         1 MOL      0.444495
     32 O6         -6.7800    1.7240   -3.4050 o         1 MOL     -0.570331
     33 C12        -3.8610    2.0210   -3.8190 c3        1 MOL     -0.113336
     34 C13        -3.1350    0.9240   -2.9770 c         1 MOL      0.633960
     35 O7         -2.0190    0.5280   -3.3390 o         1 MOL     -0.649646
     36 O8         -3.7250    0.5030   -1.9570 o         1 MOL     -0.649646
     37 H13        -3.8170    3.1660   -1.0680 hn        1 MOL      0.136782
     38 H14        -5.2900    3.6310   -3.6340 h1        1 MOL      0.076935
     39 H15        -3.1770    2.6320   -4.4030 hc        1 MOL      0.030437
     40 H16        -4.4200    1.4700   -4.5740 hc        1 MOL      0.030437
     41 N4         -6.1360    1.7720   -1.2370 n         1 MOL     -0.179686
     42 C14        -7.1910    0.8970   -0.7340 c3        1 MOL     -0.180187
     43 C15        -7.1130   -0.6620   -0.9960 c         1 MOL      0.558897
     44 O9         -8.0480   -1.4000   -0.6880 o         1 MOL     -0.623173
     45 H17        -5.3800    1.9480   -0.5900 hn        1 MOL      0.128658
     46 H18        -8.1630    1.1760   -1.1410 h1        1 MOL      0.091838
     47 H19        -7.2360    1.0100    0.3480 h1        1 MOL      0.091838
     48 N5         -5.9620   -1.1010   -1.5030 n         1 MOL     -0.332800
     49 C16        -5.9320   -2.4610   -2.0060 c3        1 MOL      0.165277
     50 C17        -5.9480   -3.6870   -1.0940 c         1 MOL      0.451438
     51 O10        -5.8450   -4.8460   -1.5200 o         1 MOL     -0.514896
     52 C18        -4.8250   -2.4900   -3.0570 c3        1 MOL     -0.324153
     53 C19        -3.5090   -2.4330   -2.3580 c         1 MOL      0.759223
     54 N6         -2.4670   -2.6020   -3.1800 n         1 MOL     -0.600150
     55 O11        -3.2630   -2.2490   -1.1720 o         1 MOL     -0.724135
     56 H20        -5.2090   -0.5130   -1.8120 hn        1 MOL      0.238470
     57 H21        -6.8700   -2.6660   -2.5320 h1        1 MOL      0.052434
     58 H22        -4.8600   -1.7430   -3.8400 hc        1 MOL      0.085661
     59 H23        -4.8970   -3.5040   -3.4650 hc        1 MOL      0.085661
     60 H24        -2.6380   -2.7100   -4.1740 hn        1 MOL      0.306969
     61 H25        -1.5190   -2.4830   -2.8700 hn        1 MOL      0.306969
     62 N7         -6.0720   -3.4320    0.2690 n         1 MOL     -0.355301
     63 C20        -6.0520   -4.3330    1.4460 c3        1 MOL      0.036533
     64 C21        -4.5880   -4.7030    1.8470 c         1 MOL      0.360446
     65 O12        -4.4810   -5.6920    2.6190 o         1 MOL     -0.566481
     66 H26        -6.1590   -2.4310    0.4060 hn        1 MOL      0.253273
     67 H27        -6.7520   -5.1740    1.4020 h1        1 MOL      0.063909
     68 H28        -6.4630   -3.7630    2.2700 h1        1 MOL      0.063909
     69 N8         -3.5520   -4.1050    1.2360 n         1 MOL     -0.009781
     70 C22        -2.1370   -4.4980    1.4710 c3        1 MOL     -0.136150
     71 C23        -1.1740   -3.3250    1.7030 c         1 MOL      0.402898
     72 O13        -1.4170   -2.2580    1.0740 o         1 MOL     -0.342922
     73 C24        -1.5540   -5.3360    0.3260 c3        1 MOL      0.523341
     74 C25        -2.0010   -6.7840    0.3200 c3        1 MOL     -0.431446
     75 O14        -1.7860   -4.7960   -0.9790 oh        1 MOL     -0.590400
     76 H29        -3.8440   -3.3320    0.6610 hn        1 MOL      0.055524
     77 H30        -2.0580   -5.0450    2.4110 h1        1 MOL      0.063053
     78 H31        -0.4880   -5.4040    0.5630 h1        1 MOL     -0.035384
     79 H32        -1.8950   -3.8460   -0.8900 ho        1 MOL      0.303933
     80 H33        -3.0600   -6.9190    0.0820 hc        1 MOL      0.102769
     81 H34        -1.3760   -7.3900   -0.3420 hc        1 MOL      0.102769
     82 H35        -1.9340   -7.3150    1.2580 hc        1 MOL      0.102769
     83 N9         -0.0740   -3.4580    2.4890 n         1 MOL     -0.526069
     84 C26         1.0040   -2.4520    2.4290 c3        1 MOL     -0.077258
     85 C27         1.8610   -2.8160    1.1970 c         1 MOL      0.603687
     86 O15         2.4780   -3.8310    1.1090 o         1 MOL     -0.588642
     87 C28         1.8540   -2.4400    3.7750 c3        1 MOL      0.058345
     88 C29         0.9090   -2.4490    4.9910 c3        1 MOL      0.330835
     89 C30         2.8060   -1.1910    3.6790 c3        1 MOL     -0.094742
     90 C31         1.7310   -2.2210    6.2790 c3        1 MOL     -0.439823
     91 H36         0.1320   -4.4080    2.7750 hn        1 MOL      0.316401
     92 H37         0.5410   -1.4810    2.2220 h1        1 MOL      0.068496
     93 H38         2.4480   -3.3580    3.7730 hc        1 MOL     -0.000409
     94 H39         0.3690   -3.3800    5.1280 hc        1 MOL     -0.059283
     95 H40         0.1530   -1.6700    4.9460 hc        1 MOL     -0.059283
     96 H41         3.3750   -1.0990    2.7530 hc        1 MOL      0.016470
     97 H42         2.1520   -0.3080    3.6900 hc        1 MOL      0.016470
     98 H43         3.4980   -1.1450    4.5090 hc        1 MOL      0.016470
     99 H44         1.9380   -1.1440    6.3470 hc        1 MOL      0.094369
    100 H45         1.0180   -2.3290    7.0920 hc        1 MOL      0.094369
    101 H46         2.6080   -2.8730    6.2390 hc        1 MOL      0.094369
    102 N10         1.8350   -1.9180    0.2280 n         1 MOL     -0.231564
    103 C32         2.6880   -1.8740   -0.9460 c3        1 MOL      0.036115
    104 C33         4.1260   -1.4650   -0.5940 c         1 MOL      0.501263
    105 O16         4.2820   -0.6850    0.3540 o         1 MOL     -0.382779
    106 C34         2.0360   -0.9830   -2.0210 c3        1 MOL     -0.431288
    107 C35         0.6220   -1.4000   -2.2870 c         1 MOL      0.838165
    108 O17        -0.2050   -0.9200   -1.5290 o         1 MOL     -0.689947
    109 O18         0.2900   -2.1510   -3.2110 o         1 MOL     -0.689947
    110 H47         1.3540   -1.0780    0.4980 hn        1 MOL      0.080264
    111 H48         2.6730   -2.9100   -1.2890 h1        1 MOL      0.066207
    112 H49         2.6200   -1.0480   -2.9490 hc        1 MOL      0.127445
    113 H50         2.0810    0.0490   -1.6870 hc        1 MOL      0.127445
    114 N11         5.0960   -1.8270   -1.3500 n         1 MOL     -0.740731
    115 C36         6.5020   -1.4090   -1.0270 c3        1 MOL      0.665614
    116 C37         6.7020    0.1090   -1.1160 c         1 MOL      0.237341
    117 O19         7.3170    0.6470   -0.2170 o         1 MOL     -0.475870
    118 C38         7.4000   -2.1950   -1.9720 c3        1 MOL     -0.382937
    119 C39         8.8990   -1.9430   -1.7170 ca        1 MOL      0.114487
    120 C40         9.7650   -1.9590   -2.8320 ca        1 MOL     -0.138121
    121 C41         9.4540   -1.7790   -0.4280 ca        1 MOL     -0.138121
    122 C42        11.1420   -1.7990   -2.7930 ca        1 MOL     -0.142330
    123 C43        10.8680   -1.6040   -0.3210 ca        1 MOL     -0.142330
    124 C44        11.6680   -1.5990   -1.4570 ca        1 MOL     -0.097458
    125 H51         4.9100   -2.4520   -2.1310 hn        1 MOL      0.365713
    126 H52         6.6350   -1.7030    0.0100 h1        1 MOL      0.005115
    127 H53         7.2040   -1.8990   -3.0000 hc        1 MOL      0.103397
    128 H54         7.2830   -3.2680   -1.7930 hc        1 MOL      0.103397
    129 H55         9.2840   -2.0700   -3.7890 ha        1 MOL      0.101911
    130 H56         8.7800   -1.7460    0.4160 ha        1 MOL      0.101911
    131 H57        11.6940   -1.8130   -3.7210 ha        1 MOL      0.123892
    132 H58        11.4190   -1.6100    0.6110 ha        1 MOL      0.123892
    133 H59        12.7400   -1.5130   -1.4560 ha        1 MOL      0.091673
    134 N12         6.2150    0.9360   -2.1220 n         1 MOL     -0.120039
    135 C45         6.1040    2.4090   -1.9150 c3        1 MOL      0.020834
    136 C46         5.1960    2.9080   -0.7260 c         1 MOL      0.441939
    137 O20         5.1880    4.0670   -0.5760 o         1 MOL     -0.531804
    138 C47         5.4840    2.9720   -3.2000 c3        1 MOL      0.003371
    139 C48         5.1610    1.7720   -4.1330 c3        1 MOL     -0.117782
    140 C49         5.9430    0.5690   -3.4470 c3        1 MOL      0.202516
    141 H60         7.0610    2.9170   -1.7600 h1        1 MOL      0.064995
    142 H61         4.6140    3.5750   -2.9870 hc        1 MOL      0.024168
    143 H62         6.2110    3.5870   -3.7290 hc        1 MOL      0.024168
    144 H63         4.0960    1.5630   -4.0260 hc        1 MOL      0.044095
    145 H64         5.4640    1.8500   -5.1730 hc        1 MOL      0.044095
    146 H65         5.4160   -0.3810   -3.5230 h1        1 MOL     -0.053713
    147 H66         6.8640    0.3530   -3.9900 h1        1 MOL     -0.053713
    148 N13         4.5070    2.0870    0.0600 n         1 MOL     -0.224454
    149 C50         3.8660    2.6320    1.3150 c3        1 MOL     -0.005730
    150 C51         4.7070    2.3090    2.5490 c         1 MOL      0.395022
    151 O21         4.6830    3.0040    3.5850 o         1 MOL     -0.579935
    152 C52         2.5040    2.1390    1.5060 c3        1 MOL     -0.076180
    153 C53         1.5770    2.5020    0.3210 c3        1 MOL      0.095919
    154 C54         0.1560    1.9490    0.4240 c         1 MOL      0.453347
    155 O22        -0.7360    2.3830   -0.3590 o         1 MOL     -0.639263
    156 O23        -0.0580    0.9000    1.0780 o         1 MOL     -0.639263
    157 H67         4.3940    1.1010   -0.1000 hn        1 MOL      0.080175
    158 H68         3.7880    3.7210    1.2790 h1        1 MOL      0.093823
    159 H69         2.1700    2.5320    2.4730 hc        1 MOL      0.062404
    160 H70         2.5100    1.0650    1.7020 hc        1 MOL      0.062404
    161 H71         1.9780    2.1050   -0.6050 hc        1 MOL      0.034400
    162 H72         1.4430    3.5870    0.2090 hc        1 MOL      0.034400
    163 N14         5.5150    1.3240    2.4830 n         1 MOL      0.024856
    164 C55         6.3240    0.8400    3.5950 c3        1 MOL     -0.229053
    165 H73         7.1760    0.2810    3.2080 h1        1 MOL      0.086546
    166 H74         6.6820    1.6870    4.1810 h1        1 MOL      0.086546
    167 H75         5.7210    0.1890    4.2280 h1        1 MOL      0.086546
    168 H76         5.5950    0.8860    1.5720 hn        1 MOL      0.041227
    169 Ca1        -2.2020   -0.0190   -0.0590 Ca        1 MOL      1.718769
    170 O24        -1.9140    0.0980    2.7460 oh        1 MOL     -0.870042
    171 H77        -1.1410    0.6080    2.5070 ho        1 MOL      0.420142
    172 H78        -1.8000   -0.0830    3.6780 ho        1 MOL      0.420142
    173 O25        -4.0270   -0.9390    1.6720 oh        1 MOL     -0.870042
    174 H79        -3.6570   -0.4440    2.3950 ho        1 MOL      0.420142
    175 H80        -4.9520   -1.0430    1.8980 ho        1 MOL      0.420142
@<TRIPOS>BOND
     1    1    2 1   
     2    1    4 1   
     3    1    5 1   
     4    1    6 1   
     5    2    3 2   
     6    2    7 1   
     7    7    8 1   
     8    7   15 1   
     9    8    9 1   
    10    8   11 1   
    11    8   16 1   
    12    9   10 2   
    13    9   19 1   
    14   11   12 1   
    15   11   17 1   
    16   11   18 1   
    17   12   13 1   
    18   12   14 1   
    19   19   20 1   
    20   19   24 1   
    21   20   21 1   
    22   20   23 1   
    23   20   25 1   
    24   21   22 2   
    25   21   29 1   
    26   23   26 1   
    27   23   27 1   
    28   23   28 1   
    29   29   30 1   
    30   29   37 1   
    31   30   31 1   
    32   30   33 1   
    33   30   38 1   
    34   31   32 2   
    35   31   41 1   
    36   33   34 1   
    37   33   39 1   
    38   33   40 1   
    39   34   35 1   
    40   34   36 1   
    41   41   42 1   
    42   41   45 1   
    43   42   43 1   
    44   42   46 1   
    45   42   47 1   
    46   43   44 2   
    47   43   48 1   
    48   48   49 1   
    49   48   56 1   
    50   49   50 1   
    51   49   52 1   
    52   49   57 1   
    53   50   51 2   
    54   50   62 1   
    55   52   53 1   
    56   52   58 1   
    57   52   59 1   
    58   53   54 1   
    59   53   55 2   
    60   54   60 1   
    61   54   61 1   
    62   62   63 1   
    63   62   66 1   
    64   63   64 1   
    65   63   67 1   
    66   63   68 1   
    67   64   65 2   
    68   64   69 1   
    69   69   70 1   
    70   69   76 1   
    71   70   71 1   
    72   70   73 1   
    73   70   77 1   
    74   71   72 2   
    75   71   83 1   
    76   73   74 1   
    77   73   75 1   
    78   73   78 1   
    79   74   80 1   
    80   74   81 1   
    81   74   82 1   
    82   75   79 1   
    83   83   84 1   
    84   83   91 1   
    85   84   85 1   
    86   84   87 1   
    87   84   92 1   
    88   85   86 2   
    89   85  102 1   
    90   87   88 1   
    91   87   89 1   
    92   87   93 1   
    93   88   90 1   
    94   88   94 1   
    95   88   95 1   
    96   89   96 1   
    97   89   97 1   
    98   89   98 1   
    99   90   99 1   
   100   90  100 1   
   101   90  101 1   
   102  102  103 1   
   103  102  110 1   
   104  103  104 1   
   105  103  106 1   
   106  103  111 1   
   107  104  105 2   
   108  104  114 1   
   109  106  107 1   
   110  106  112 1   
   111  106  113 1   
   112  107  108 1   
   113  107  109 1   
   114  114  115 1   
   115  114  125 1   
   116  115  116 1   
   117  115  118 1   
   118  115  126 1   
   119  116  117 2   
   120  116  134 1   
   121  118  119 1   
   122  118  127 1   
   123  118  128 1   
   124  119  120 ar  
   125  119  121 ar  
   126  120  122 ar  
   127  120  129 1   
   128  121  123 ar  
   129  121  130 1   
   130  122  124 ar  
   131  122  131 1   
   132  123  124 ar  
   133  123  132 1   
   134  124  133 1   
   135  134  135 1   
   136  134  140 1   
   137  135  136 1   
   138  135  138 1   
   139  135  141 1   
   140  136  137 2   
   141  136  148 1   
   142  138  139 1   
   143  138  142 1   
   144  138  143 1   
   145  139  140 1   
   146  139  144 1   
   147  139  145 1   
   148  140  146 1   
   149  140  147 1   
   150  148  149 1   
   151  148  157 1   
   152  149  150 1   
   153  149  152 1   
   154  149  158 1   
   155  150  151 2   
   156  150  163 1   
   157  152  153 1   
   158  152  159 1   
   159  152  160 1   
   160  153  154 1   
   161  153  161 1   
   162  153  162 1   
   163  154  155 1   
   164  154  156 1   
   165  163  164 1   
   166  163  168 1   
   167  164  165 1   
   168  164  166 1   
   169  164  167 1   
   170  170  171 1   
   171  170  172 1   
   172  173  174 1   
   173  173  175 1   
@<TRIPOS>SUBSTRUCTURE
     1 MOL         1 TEMP              0 ****  ****    0 ROOT
