@<TRIPOS>MOLECULE
MOL
  175   173     1     0     0
SMALL
resp


@<TRIPOS>ATOM
      1 C1          0.6270    4.5800    4.9450 c3        1 MOL     -0.444744
      2 C2         -0.1040    4.3760    3.6160 c         1 MOL      0.735799
      3 O1          0.4490    4.6040    2.5700 o         1 MOL     -0.536961
      4 H1         -0.0230    4.2800    5.7660 hc        1 MOL      0.112573
      5 H2          1.5330    3.9730    4.9580 hc        1 MOL      0.112573
      6 H3          0.8920    5.6310    5.0570 hc        1 MOL      0.112573
      7 N1         -1.4520    4.0680    3.5780 n         1 MOL     -0.714659
      8 C3         -2.2060    3.6520    2.4060 c3        1 MOL      0.343652
      9 C4         -2.3190    4.8340    1.4180 c         1 MOL      0.420390
     10 O2         -2.6180    6.0170    1.6150 o         1 MOL     -0.577124
     11 C5         -3.5650    3.0180    2.8730 c3        1 MOL     -0.384701
     12 C6         -4.3020    2.2190    1.7770 c         1 MOL      0.790710
     13 O3         -5.3900    1.6790    2.1500 o         1 MOL     -0.640946
     14 O4         -3.7420    1.9900    0.6480 o         1 MOL     -0.640946
     15 H4         -1.8740    4.0030    4.4930 hn        1 MOL      0.320628
     16 H5         -1.6510    2.8270    1.9590 h1        1 MOL      0.082784
     17 H6         -4.2660    3.7470    3.2760 hc        1 MOL      0.070350
     18 H7         -3.2050    2.2610    3.5780 hc        1 MOL      0.070350
     19 N2         -2.1220    4.4680    0.1530 n         1 MOL     -0.208861
     20 C7         -2.3500    5.2730   -0.9980 c3        1 MOL      0.177477
     21 C8         -3.6670    4.8630   -1.7830 c         1 MOL      0.472793
     22 O5         -4.1100    5.6850   -2.6390 o         1 MOL     -0.580271
     23 C9         -1.1090    5.3140   -1.9420 c3        1 MOL     -0.293271
     24 H8         -1.6040    3.6020    0.0540 hn        1 MOL      0.189708
     25 H9         -2.6550    6.2920   -0.7570 h1        1 MOL      0.035963
     26 H10        -1.1410    6.1800   -2.6050 hc        1 MOL      0.075711
     27 H11        -0.2560    5.3190   -1.2650 hc        1 MOL      0.075711
     28 H12        -1.0460    4.4140   -2.5410 hc        1 MOL      0.075711
     29 N3         -4.3750    3.7540   -1.5310 n         1 MOL     -0.349418
     30 C10        -5.2400    3.1490   -2.5470 c3        1 MOL     -0.001300
     31 C11        -6.3610    2.1970   -2.0490 c         1 MOL      0.449444
     32 O6         -7.1980    1.8560   -2.9150 o         1 MOL     -0.571583
     33 C12        -4.2950    2.3760   -3.4750 c3        1 MOL      0.029087
     34 C13        -3.5480    1.3090   -2.7700 c         1 MOL      0.650497
     35 O7         -4.1580    0.4930   -1.9690 o         1 MOL     -0.721153
     36 O8         -2.2860    1.1830   -2.8750 o         1 MOL     -0.721153
     37 H13        -4.1940    3.1760   -0.7300 hn        1 MOL      0.108890
     38 H14        -5.6840    3.9300   -3.1500 h1        1 MOL      0.090517
     39 H15        -3.6060    3.0670   -3.9790 hc        1 MOL      0.014111
     40 H16        -4.8120    1.9920   -4.3500 hc        1 MOL      0.014111
     41 N4         -6.4950    1.7490   -0.8070 n         1 MOL     -0.214974
     42 C14        -7.5490    0.8330   -0.4220 c3        1 MOL     -0.255584
     43 C15        -7.4400   -0.5990   -1.0190 c         1 MOL      0.626140
     44 O9         -8.3950   -1.3510   -0.8150 o         1 MOL     -0.621561
     45 H17        -5.7920    1.9860   -0.1270 hn        1 MOL      0.182182
     46 H18        -8.5500    1.1570   -0.7090 h1        1 MOL      0.124732
     47 H19        -7.5300    0.8280    0.6600 h1        1 MOL      0.124732
     48 N5         -6.2420   -1.0400   -1.5770 n         1 MOL     -0.354308
     49 C16        -6.0470   -2.3520   -2.1720 c3        1 MOL      0.023638
     50 C17        -5.9710   -3.5340   -1.1410 c         1 MOL      0.372058
     51 O10        -5.9090   -4.6940   -1.5140 o         1 MOL     -0.538528
     52 C18        -4.8270   -2.3500   -3.1070 c3        1 MOL     -0.099495
     53 C19        -3.4800   -2.3760   -2.5530 c         1 MOL      0.707329
     54 N6         -2.5400   -2.4060   -3.4460 n         1 MOL     -0.682557
     55 O11        -3.2480   -2.4490   -1.3660 o         1 MOL     -0.575457
     56 H20        -5.6620   -0.2320   -1.7210 hn        1 MOL      0.229543
     57 H21        -6.8980   -2.6030   -2.8000 h1        1 MOL      0.070962
     58 H22        -5.0450   -1.5590   -3.8270 hc        1 MOL      0.030196
     59 H23        -4.8840   -3.2460   -3.7100 hc        1 MOL      0.030196
     60 H24        -2.8260   -2.2120   -4.3990 hn        1 MOL      0.321762
     61 H25        -1.6190   -2.3960   -3.0380 hn        1 MOL      0.321762
     62 N7         -5.9500   -3.2170    0.1220 n         1 MOL     -0.114571
     63 C20        -5.9990   -4.1490    1.2520 c3        1 MOL     -0.060989
     64 C21        -4.6600   -4.4510    1.9040 c         1 MOL      0.516269
     65 O12        -4.5450   -5.2990    2.8240 o         1 MOL     -0.608718
     66 H26        -6.0990   -2.2280    0.2880 hn        1 MOL      0.208733
     67 H27        -6.4620   -5.1150    1.0430 h1        1 MOL      0.064174
     68 H28        -6.6250   -3.6680    2.0060 h1        1 MOL      0.064174
     69 N8         -3.6160   -3.7290    1.4660 n         1 MOL     -0.210552
     70 C22        -2.2100   -4.1880    1.7580 c3        1 MOL     -0.012875
     71 C23        -1.1800   -3.0750    1.7330 c         1 MOL      0.272439
     72 O13        -1.3670   -2.0640    1.0490 o         1 MOL     -0.370814
     73 C24        -1.8310   -5.1720    0.6990 c3        1 MOL      0.634682
     74 C25        -2.1820   -6.6460    1.0250 c3        1 MOL     -0.495901
     75 O14        -2.2150   -4.8260   -0.5760 oh        1 MOL     -0.563408
     76 H29        -3.7480   -3.0310    0.7610 hn        1 MOL      0.055222
     77 H30        -2.1080   -4.7000    2.7230 h1        1 MOL      0.047152
     78 H31        -0.7430   -5.1740    0.8240 h1        1 MOL     -0.122044
     79 H32        -1.9300   -3.9140   -0.7130 ho        1 MOL      0.288725
     80 H33        -1.8070   -6.9160    2.0190 hc        1 MOL      0.114198
     81 H34        -3.2520   -6.8260    1.0080 hc        1 MOL      0.114198
     82 H35        -1.7430   -7.2230    0.2180 hc        1 MOL      0.114198
     83 N9         -0.0360   -3.3020    2.4210 n         1 MOL     -0.269670
     84 C26         1.1690   -2.4560    2.3170 c3        1 MOL     -0.079042
     85 C27         1.8550   -2.8400    1.0490 c         1 MOL      0.558445
     86 O15         2.3590   -3.9050    0.8180 o         1 MOL     -0.575994
     87 C28         1.9850   -2.5590    3.6110 c3        1 MOL      0.102192
     88 C29         1.2890   -1.7770    4.7280 c3        1 MOL      0.151319
     89 C30         3.4250   -2.1710    3.4030 c3        1 MOL     -0.103909
     90 C31         1.7350   -1.8010    6.1890 c3        1 MOL     -0.101464
     91 H36         0.1010   -4.1470    2.9610 hn        1 MOL      0.246212
     92 H37         0.8990   -1.4060    2.2130 h1        1 MOL      0.044590
     93 H38         1.9930   -3.6060    3.9340 hc        1 MOL     -0.026804
     94 H39         0.2610   -2.1280    4.7320 hc        1 MOL     -0.039775
     95 H40         1.3040   -0.7140    4.4820 hc        1 MOL     -0.039775
     96 H41         4.0230   -2.2830    4.3120 hc        1 MOL      0.018716
     97 H42         3.8530   -2.9220    2.7450 hc        1 MOL      0.018716
     98 H43         3.4590   -1.1710    2.9550 hc        1 MOL      0.018716
     99 H44         1.3380   -0.9830    6.7820 hc        1 MOL      0.008614
    100 H45         1.4320   -2.7660    6.6150 hc        1 MOL      0.008614
    101 H46         2.8190   -1.7410    6.1690 hc        1 MOL      0.008614
    102 N10         1.7290   -1.9170    0.0430 n         1 MOL     -0.207753
    103 C32         2.5440   -1.9820   -1.1430 c3        1 MOL      0.144951
    104 C33         4.0090   -1.6310   -0.7720 c         1 MOL      0.525032
    105 O16         4.2250   -0.9970    0.2730 o         1 MOL     -0.436229
    106 C34         1.9260   -1.1910   -2.2790 c3        1 MOL     -0.367797
    107 C35         0.4800   -1.4740   -2.5110 c         1 MOL      0.742311
    108 O17        -0.3430   -1.0190   -1.6690 o         1 MOL     -0.642649
    109 O18         0.1860   -2.0370   -3.5770 o         1 MOL     -0.642649
    110 H47         1.1940   -1.0820    0.2410 hn        1 MOL      0.058662
    111 H48         2.5550   -3.0380   -1.4110 h1        1 MOL      0.034159
    112 H49         2.4740   -1.4360   -3.1900 hc        1 MOL      0.081463
    113 H50         2.0200   -0.1110   -2.1240 hc        1 MOL      0.081463
    114 N11         4.9500   -1.8730   -1.6540 n         1 MOL     -0.782288
    115 C36         6.3560   -1.5660   -1.4550 c3        1 MOL      0.621881
    116 C37         6.6440   -0.0480   -1.2250 c         1 MOL      0.228776
    117 O19         7.1020    0.3530   -0.1250 o         1 MOL     -0.469773
    118 C38         7.2700   -2.3410   -2.4010 c3        1 MOL     -0.272498
    119 C39         8.7580   -1.9730   -1.9950 ca        1 MOL      0.073015
    120 C40         9.2640   -1.8750   -0.6730 ca        1 MOL     -0.132478
    121 C41         9.6920   -1.7560   -3.0290 ca        1 MOL     -0.132478
    122 C42        10.5850   -1.3970   -0.5050 ca        1 MOL     -0.145367
    123 C43        11.0770   -1.4420   -2.8520 ca        1 MOL     -0.145367
    124 C44        11.4770   -1.2140   -1.5610 ca        1 MOL     -0.061319
    125 H51         4.7780   -2.4240   -2.4830 hn        1 MOL      0.366785
    126 H52         6.6110   -2.0110   -0.4910 h1        1 MOL      0.034560
    127 H53         6.9840   -2.1000   -3.4250 hc        1 MOL      0.069267
    128 H54         7.1210   -3.4140   -2.2280 hc        1 MOL      0.069267
    129 H55         8.6900   -2.1590    0.1920 ha        1 MOL      0.099581
    130 H56         9.3540   -2.0470   -4.0150 ha        1 MOL      0.099581
    131 H57        10.9810   -1.4110    0.4980 ha        1 MOL      0.116548
    132 H58        11.8140   -1.4040   -3.6450 ha        1 MOL      0.116548
    133 H59        12.5260   -1.0180   -1.3720 ha        1 MOL      0.087792
    134 N12         6.3090    0.9730   -2.0860 n         1 MOL     -0.092025
    135 C45         6.1150    2.3840   -1.7570 c3        1 MOL      0.195490
    136 C46         5.5040    2.8430   -0.4580 c         1 MOL      0.320576
    137 O20         5.8500    3.8970   -0.0350 o         1 MOL     -0.513265
    138 C47         5.5080    3.0640   -2.9850 c3        1 MOL     -0.314261
    139 C48         4.9320    1.9210   -3.7340 c3        1 MOL      0.100687
    140 C49         5.9040    0.7430   -3.4890 c3        1 MOL     -0.114980
    141 H60         7.1200    2.8150   -1.6740 h1        1 MOL      0.028270
    142 H61         4.7620    3.7930   -2.6920 hc        1 MOL      0.105715
    143 H62         6.3450    3.3790   -3.6050 hc        1 MOL      0.105715
    144 H63         3.9410    1.7340   -3.3160 hc        1 MOL      0.021255
    145 H64         4.7740    2.1520   -4.7840 hc        1 MOL      0.021255
    146 H65         5.3630   -0.1840   -3.6710 h1        1 MOL      0.035791
    147 H66         6.8300    0.7490   -4.0520 h1        1 MOL      0.035791
    148 N13         4.6770    2.0370    0.2090 n         1 MOL     -0.157313
    149 C50         3.9790    2.3210    1.5390 c3        1 MOL     -0.010617
    150 C51         4.6880    1.7290    2.7120 c         1 MOL      0.439856
    151 O21         4.6620    2.3120    3.7710 o         1 MOL     -0.544384
    152 C52         2.5760    1.7850    1.6210 c3        1 MOL      0.093848
    153 C53         1.8180    2.0870    0.3150 c3        1 MOL     -0.081183
    154 C54         0.3670    1.5660    0.4170 c         1 MOL      0.576344
    155 O22         0.0880    0.6030    1.1580 o         1 MOL     -0.676846
    156 O23        -0.5560    2.1700   -0.1850 o         1 MOL     -0.676846
    157 H67         4.7020    1.0620   -0.0650 hn        1 MOL      0.158060
    158 H68         3.8430    3.3980    1.6870 h1        1 MOL      0.084632
    159 H69         2.1170    2.3360    2.4450 hc        1 MOL      0.002736
    160 H70         2.6990    0.7200    1.8290 hc        1 MOL      0.002736
    161 H71         2.3420    1.6800   -0.5410 hc        1 MOL      0.043938
    162 H72         1.7020    3.1670    0.2370 hc        1 MOL      0.043938
    163 N14         5.5750    0.7390    2.4650 n         1 MOL     -0.020537
    164 C55         6.7560    0.4370    3.3910 c3        1 MOL     -0.388690
    165 H73         6.3850    0.2160    4.3920 h1        1 MOL      0.132811
    166 H74         7.3060   -0.4240    3.0100 h1        1 MOL      0.132811
    167 H75         7.4170    1.3020    3.4310 h1        1 MOL      0.132811
    168 H76         5.5720    0.2080    1.6120 hn        1 MOL      0.044308
    169 Ca1        -2.1250    0.1420   -0.3340 Ca        1 MOL      1.658347
    170 O24        -1.9720    0.0600    2.6560 oh        1 MOL     -0.790700
    171 H77        -1.0200    0.1320    2.5700 ho        1 MOL      0.372810
    172 H78        -2.1650    0.4830    3.5010 ho        1 MOL      0.372810
    173 O25        -4.4810   -0.7540    1.5890 oh        1 MOL     -0.790700
    174 H79        -4.5870    0.1990    1.6380 ho        1 MOL      0.372810
    175 H80        -3.8370   -0.9530    2.2780 ho        1 MOL      0.372810
@<TRIPOS>BOND
     1    1    2 1   
     2    1    4 1   
     3    1    5 1   
     4    1    6 1   
     5    2    3 2   
     6    2    7 1   
     7    7    8 1   
     8    7   15 1   
     9    8    9 1   
    10    8   11 1   
    11    8   16 1   
    12    9   10 2   
    13    9   19 1   
    14   11   12 1   
    15   11   17 1   
    16   11   18 1   
    17   12   13 1   
    18   12   14 1   
    19   19   20 1   
    20   19   24 1   
    21   20   21 1   
    22   20   23 1   
    23   20   25 1   
    24   21   22 2   
    25   21   29 1   
    26   23   26 1   
    27   23   27 1   
    28   23   28 1   
    29   29   30 1   
    30   29   37 1   
    31   30   31 1   
    32   30   33 1   
    33   30   38 1   
    34   31   32 2   
    35   31   41 1   
    36   33   34 1   
    37   33   39 1   
    38   33   40 1   
    39   34   35 1   
    40   34   36 1   
    41   41   42 1   
    42   41   45 1   
    43   42   43 1   
    44   42   46 1   
    45   42   47 1   
    46   43   44 2   
    47   43   48 1   
    48   48   49 1   
    49   48   56 1   
    50   49   50 1   
    51   49   52 1   
    52   49   57 1   
    53   50   51 2   
    54   50   62 1   
    55   52   53 1   
    56   52   58 1   
    57   52   59 1   
    58   53   54 1   
    59   53   55 2   
    60   54   60 1   
    61   54   61 1   
    62   62   63 1   
    63   62   66 1   
    64   63   64 1   
    65   63   67 1   
    66   63   68 1   
    67   64   65 2   
    68   64   69 1   
    69   69   70 1   
    70   69   76 1   
    71   70   71 1   
    72   70   73 1   
    73   70   77 1   
    74   71   72 2   
    75   71   83 1   
    76   73   74 1   
    77   73   75 1   
    78   73   78 1   
    79   74   80 1   
    80   74   81 1   
    81   74   82 1   
    82   75   79 1   
    83   83   84 1   
    84   83   91 1   
    85   84   85 1   
    86   84   87 1   
    87   84   92 1   
    88   85   86 2   
    89   85  102 1   
    90   87   88 1   
    91   87   89 1   
    92   87   93 1   
    93   88   90 1   
    94   88   94 1   
    95   88   95 1   
    96   89   96 1   
    97   89   97 1   
    98   89   98 1   
    99   90   99 1   
   100   90  100 1   
   101   90  101 1   
   102  102  103 1   
   103  102  110 1   
   104  103  104 1   
   105  103  106 1   
   106  103  111 1   
   107  104  105 2   
   108  104  114 1   
   109  106  107 1   
   110  106  112 1   
   111  106  113 1   
   112  107  108 1   
   113  107  109 1   
   114  114  115 1   
   115  114  125 1   
   116  115  116 1   
   117  115  118 1   
   118  115  126 1   
   119  116  117 2   
   120  116  134 1   
   121  118  119 1   
   122  118  127 1   
   123  118  128 1   
   124  119  120 ar  
   125  119  121 ar  
   126  120  122 ar  
   127  120  129 1   
   128  121  123 ar  
   129  121  130 1   
   130  122  124 ar  
   131  122  131 1   
   132  123  124 ar  
   133  123  132 1   
   134  124  133 1   
   135  134  135 1   
   136  134  140 1   
   137  135  136 1   
   138  135  138 1   
   139  135  141 1   
   140  136  137 2   
   141  136  148 1   
   142  138  139 1   
   143  138  142 1   
   144  138  143 1   
   145  139  140 1   
   146  139  144 1   
   147  139  145 1   
   148  140  146 1   
   149  140  147 1   
   150  148  149 1   
   151  148  157 1   
   152  149  150 1   
   153  149  152 1   
   154  149  158 1   
   155  150  151 2   
   156  150  163 1   
   157  152  153 1   
   158  152  159 1   
   159  152  160 1   
   160  153  154 1   
   161  153  161 1   
   162  153  162 1   
   163  154  155 1   
   164  154  156 1   
   165  163  164 1   
   166  163  168 1   
   167  164  165 1   
   168  164  166 1   
   169  164  167 1   
   170  170  171 1   
   171  170  172 1   
   172  173  174 1   
   173  173  175 1   
@<TRIPOS>SUBSTRUCTURE
     1 MOL         1 TEMP              0 ****  ****    0 ROOT
