@<TRIPOS>MOLECULE
MOL
  178   175     1     0     0
SMALL
resp


@<TRIPOS>ATOM
      1 C1          0.1920   -2.8680    5.7710 c3        1 MOL     -0.415692
      2 C2          0.4700   -2.7810    4.2480 c         1 MOL      0.708824
      3 O1         -0.1400   -3.4400    3.3680 o         1 MOL     -0.591347
      4 H1         -0.4870   -3.6980    5.9690 hc        1 MOL      0.102183
      5 H2          1.1300   -3.0310    6.3030 hc        1 MOL      0.102183
      6 H3         -0.2620   -1.9380    6.1120 hc        1 MOL      0.102183
      7 N1          1.4460   -1.9810    3.9870 n         1 MOL     -0.508861
      8 C3          2.0870   -1.8280    2.6330 c3        1 MOL      0.177455
      9 C4          2.7460   -3.1710    2.2080 c         1 MOL      0.489768
     10 O2          3.6410   -3.6610    2.9270 o         1 MOL     -0.613792
     11 C5          3.0540   -0.6020    2.6590 c3        1 MOL     -0.099264
     12 C6          3.8090   -0.4110    1.3430 c         1 MOL      0.615526
     13 O3          4.5580    0.5730    1.2820 o         1 MOL     -0.689611
     14 O4          3.6610   -1.1160    0.3110 o         1 MOL     -0.689611
     15 H4          1.8670   -1.6070    4.8240 hn        1 MOL      0.277500
     16 H5          1.3560   -1.7170    1.8420 h1        1 MOL     -0.063451
     17 H6          3.7060   -0.7060    3.5240 hc        1 MOL      0.038645
     18 H7          2.5150    0.3110    2.9010 hc        1 MOL      0.038645
     19 N2          2.4030   -3.7510    1.0610 n         1 MOL     -0.226115
     20 C7          2.9830   -4.9840    0.5530 c3        1 MOL      0.101064
     21 C8          4.1500   -4.8110   -0.4370 c         1 MOL      0.542907
     22 O5          4.6010   -5.8350   -0.9800 o         1 MOL     -0.571139
     23 C9          1.8600   -5.8560    0.0290 c3        1 MOL     -0.135865
     24 H8          1.7470   -3.2650    0.4560 hn        1 MOL      0.171863
     25 H9          3.4560   -5.4810    1.3950 h1        1 MOL      0.045256
     26 H10         1.0820   -6.0580    0.7660 hc        1 MOL      0.041911
     27 H11         1.3730   -5.5060   -0.8850 hc        1 MOL      0.041911
     28 H12         2.1970   -6.8690   -0.1630 hc        1 MOL      0.041911
     29 N3          4.6140   -3.5670   -0.6290 n         1 MOL     -0.554576
     30 C10         5.7880   -3.3070   -1.4410 c3        1 MOL      0.193276
     31 C11         6.9180   -2.6890   -0.6990 c         1 MOL      0.364345
     32 O6          8.0280   -2.6480   -1.1700 o         1 MOL     -0.513084
     33 C12         5.5630   -2.4420   -2.6430 c3        1 MOL     -0.170059
     34 C13         4.1940   -2.6300   -3.3370 c         1 MOL      0.738166
     35 O7          3.1980   -2.0700   -2.7890 o         1 MOL     -0.685164
     36 O8          4.0940   -3.1580   -4.4420 o         1 MOL     -0.685164
     37 H13         4.0200   -2.7820   -0.4060 hn        1 MOL      0.293012
     38 H14         6.1050   -4.2710   -1.8430 h1        1 MOL      0.077052
     39 H15         6.3160   -2.5890   -3.4220 hc        1 MOL      0.003976
     40 H16         5.6720   -1.4110   -2.3130 hc        1 MOL      0.003976
     41 N4          6.7140   -2.1740    0.5950 n         1 MOL     -0.236592
     42 C14         7.8500   -1.6430    1.3310 c3        1 MOL     -0.243321
     43 C15         8.2650   -0.2890    0.8150 c         1 MOL      0.483373
     44 O9          9.3370    0.2050    1.1550 o         1 MOL     -0.574003
     45 H17         5.7850   -2.2270    0.9890 hn        1 MOL      0.210017
     46 H18         8.7120   -2.3030    1.1630 h1        1 MOL      0.128602
     47 H19         7.6740   -1.5970    2.3960 h1        1 MOL      0.128602
     48 N5          7.4390    0.3540    0.0190 n         1 MOL     -0.253844
     49 C16         7.4970    1.6190   -0.6860 c3        1 MOL     -0.266920
     50 C17         7.1020    2.8640    0.0370 c         1 MOL      0.560477
     51 O10         7.4410    3.9820   -0.3470 o         1 MOL     -0.577228
     52 C18         6.8480    1.4010   -2.0570 c3        1 MOL      0.008666
     53 C19         5.4200    1.7750   -1.9660 c         1 MOL      0.423881
     54 N6          5.0370    3.0220   -2.0620 n         1 MOL     -0.663902
     55 O11         4.5540    0.9480   -1.8390 o         1 MOL     -0.533183
     56 H20         6.5590   -0.0990   -0.1650 hn        1 MOL      0.428491
     57 H21         8.5680    1.7610   -0.8380 h1        1 MOL      0.146500
     58 H22         6.9760    0.4040   -2.4690 hc        1 MOL      0.052382
     59 H23         7.3700    1.9970   -2.8060 hc        1 MOL      0.052382
     60 H24         5.7320    3.7410   -2.1730 hn        1 MOL      0.321389
     61 H25         4.0410    3.1880   -2.1510 hn        1 MOL      0.321389
     62 N7          6.2730    2.6910    1.0870 n         1 MOL     -0.170287
     63 C20         5.9810    3.7760    2.0010 c3        1 MOL     -0.209440
     64 C21         4.6550    4.4940    1.8410 c         1 MOL      0.511380
     65 O12         4.5200    5.6080    2.2690 o         1 MOL     -0.520150
     66 H26         5.8660    1.7970    1.3210 hn        1 MOL      0.171341
     67 H27         6.8440    4.4520    2.0050 h1        1 MOL      0.104438
     68 H28         5.9830    3.3210    2.9960 h1        1 MOL      0.104438
     69 N8          3.7320    3.7400    1.1400 n         1 MOL     -0.164175
     70 C22         2.3310    4.1510    0.9020 c3        1 MOL     -0.328696
     71 C23         1.2560    3.0780    0.6970 c         1 MOL      0.811302
     72 O13         1.6440    1.9820    0.3410 o         1 MOL     -0.603681
     73 C24         2.2940    5.0560   -0.3310 c3        1 MOL      0.404991
     74 C25         3.3930    6.1310   -0.5070 c3        1 MOL     -0.537946
     75 O14         2.3290    4.3970   -1.5760 oh        1 MOL     -0.661641
     76 H29         3.9140    2.7590    0.9780 hn        1 MOL      0.230767
     77 H30         2.0530    4.6790    1.8080 h1        1 MOL      0.111091
     78 H31         1.3490    5.5950   -0.3570 h1        1 MOL     -0.007618
     79 H32         2.4540    5.0480   -2.2700 ho        1 MOL      0.417639
     80 H33         3.4320    6.8190    0.3370 hc        1 MOL      0.147496
     81 H34         4.3720    5.6640   -0.5910 hc        1 MOL      0.147496
     82 H35         3.1340    6.6050   -1.4510 hc        1 MOL      0.147496
     83 N9         -0.0090    3.3630    1.0010 n         1 MOL     -0.528603
     84 C26        -1.1780    2.4960    0.9790 c3        1 MOL     -0.101565
     85 C27        -2.1160    2.7860   -0.1930 c         1 MOL      0.591921
     86 O15        -2.6860    3.8640   -0.2750 o         1 MOL     -0.622218
     87 C28        -1.8950    2.5130    2.3550 c3        1 MOL      0.438067
     88 C29        -2.3610    3.8670    2.8170 c3        1 MOL      0.065916
     89 C30        -1.0080    1.7860    3.4240 c3        1 MOL     -0.170982
     90 C31        -2.8890    3.9160    4.2580 c3        1 MOL      0.005025
     91 H36        -0.1070    4.3000    1.3630 hn        1 MOL      0.266307
     92 H37        -0.9700    1.4520    0.8000 h1        1 MOL      0.057502
     93 H38        -2.8000    1.9150    2.2680 hc        1 MOL     -0.138411
     94 H39        -3.2110    4.1950    2.2190 hc        1 MOL     -0.030649
     95 H40        -1.5510    4.5770    2.6960 hc        1 MOL     -0.030649
     96 H41        -0.6310    0.8230    3.1010 hc        1 MOL      0.011173
     97 H42        -0.2450    2.4970    3.7380 hc        1 MOL      0.011173
     98 H43        -1.6380    1.5920    4.2990 hc        1 MOL      0.011173
     99 H44        -2.0940    3.8630    5.0010 hc        1 MOL     -0.018794
    100 H45        -3.3010    4.9170    4.3850 hc        1 MOL     -0.018794
    101 H46        -3.6920    3.1890    4.4260 hc        1 MOL     -0.018794
    102 N10        -2.3450    1.8430   -1.0160 n         1 MOL     -0.405729
    103 C32        -3.5040    1.7730   -1.8470 c3        1 MOL      0.125360
    104 C33        -4.7190    1.2370   -1.0480 c         1 MOL      0.483110
    105 O16        -4.5750    0.6950    0.0590 o         1 MOL     -0.465651
    106 C34        -3.2370    0.9400   -3.0720 c3        1 MOL     -0.006537
    107 C35        -4.3460    0.5400   -4.0300 c         1 MOL      0.605629
    108 O17        -4.1700   -0.5670   -4.6800 o         1 MOL     -0.671791
    109 O18        -5.2900    1.3680   -4.2670 o         1 MOL     -0.671791
    110 H47        -1.8160    0.9940   -0.8840 hn        1 MOL      0.207614
    111 H48        -3.7370    2.7720   -2.2230 h1        1 MOL      0.051161
    112 H49        -2.7410    0.0120   -2.7870 hc        1 MOL     -0.001205
    113 H50        -2.5300    1.5240   -3.6570 hc        1 MOL     -0.001205
    114 N11        -5.9380    1.2740   -1.5940 n         1 MOL     -0.565258
    115 C36        -7.1790    0.8680   -0.9570 c3        1 MOL      0.414380
    116 C37        -7.1940   -0.5100   -0.3010 c         1 MOL      0.310595
    117 O19        -7.5920   -0.5680    0.8100 o         1 MOL     -0.477175
    118 C38        -8.3650    1.1080   -1.9150 c3        1 MOL     -0.147262
    119 C39        -9.6640    1.2370   -1.1510 ca        1 MOL      0.000760
    120 C40        -9.8180    2.3280   -0.2060 ca        1 MOL     -0.131503
    121 C41       -10.6420    0.2080   -1.2670 ca        1 MOL     -0.131503
    122 C42       -10.9360    2.3790    0.6040 ca        1 MOL     -0.131657
    123 C43       -11.7890    0.3250   -0.4480 ca        1 MOL     -0.131657
    124 C44       -11.8330    1.3230    0.5410 ca        1 MOL     -0.088757
    125 H51        -6.0370    1.4830   -2.5870 hn        1 MOL      0.205324
    126 H52        -7.3260    1.6610   -0.2260 h1        1 MOL      0.031441
    127 H53        -8.4060    0.3220   -2.6670 hc        1 MOL      0.069731
    128 H54        -8.3340    2.0490   -2.4560 hc        1 MOL      0.069731
    129 H55        -9.0380    3.0670   -0.0770 ha        1 MOL      0.118582
    130 H56       -10.5000   -0.6040   -1.9580 ha        1 MOL      0.118582
    131 H57       -11.1130    3.1810    1.3150 ha        1 MOL      0.106861
    132 H58       -12.6500   -0.3280   -0.5020 ha        1 MOL      0.106861
    133 H59       -12.6420    1.2230    1.2530 ha        1 MOL      0.084206
    134 N12        -6.6830   -1.6210   -0.8580 n         1 MOL     -0.069643
    135 C45        -6.6860   -2.8960   -0.2420 c3        1 MOL     -0.040830
    136 C46        -5.6480   -3.0360    0.8860 c         1 MOL      0.356718
    137 O20        -5.7660   -3.6900    1.9400 o         1 MOL     -0.529249
    138 C47        -6.4020   -3.8730   -1.4390 c3        1 MOL     -0.061201
    139 C48        -6.6740   -3.0630   -2.6630 c3        1 MOL     -0.126949
    140 C49        -6.1400   -1.7300   -2.2020 c3        1 MOL      0.011303
    141 H60        -7.6790   -3.1940    0.1000 h1        1 MOL      0.078412
    142 H61        -5.3800   -4.2660   -1.4170 hc        1 MOL      0.044511
    143 H62        -7.0490   -4.7540   -1.4710 hc        1 MOL      0.044511
    144 H63        -6.1230   -3.3520   -3.5580 hc        1 MOL      0.053318
    145 H64        -7.7170   -3.0120   -2.9790 hc        1 MOL      0.053318
    146 H65        -5.0560   -1.6830   -2.1780 h1        1 MOL      0.061607
    147 H66        -6.5740   -0.9740   -2.8580 h1        1 MOL      0.061607
    148 N13        -4.6030   -2.2330    0.8110 n         1 MOL     -0.182651
    149 C50        -3.6500   -2.1130    1.9040 c3        1 MOL     -0.043301
    150 C51        -4.1490   -1.2180    3.0750 c         1 MOL      0.362390
    151 O21        -3.7450   -1.4060    4.2320 o         1 MOL     -0.546744
    152 C52        -2.3150   -1.5410    1.3400 c3        1 MOL     -0.058946
    153 C53        -1.6530   -2.2630    0.2090 c3        1 MOL     -0.221993
    154 C54        -0.3690   -1.5250   -0.3310 c         1 MOL      0.948320
    155 O22        -0.2930   -0.3090   -0.5070 o         1 MOL     -0.780335
    156 O23         0.6080   -2.2230   -0.6830 o         1 MOL     -0.780335
    157 H67        -4.4410   -1.6010    0.0330 hn        1 MOL      0.205285
    158 H68        -3.4370   -3.1300    2.2500 h1        1 MOL      0.131282
    159 H69        -1.6020   -1.4840    2.1560 hc        1 MOL      0.082622
    160 H70        -2.4370   -0.5070    1.0350 hc        1 MOL      0.082622
    161 H71        -2.2780   -2.3470   -0.6780 hc        1 MOL      0.053558
    162 H72        -1.3750   -3.2530    0.5510 hc        1 MOL      0.053558
    163 N14        -5.2010   -0.4090    2.7600 n         1 MOL      0.116549
    164 C55        -6.0690    0.4680    3.5680 c3        1 MOL     -0.182110
    165 H73        -6.8310   -0.1340    4.0640 h1        1 MOL      0.070370
    166 H74        -5.4680    0.9820    4.3180 h1        1 MOL      0.070370
    167 H75        -6.5490    1.2010    2.9200 h1        1 MOL      0.070370
    168 H76        -5.4620   -0.4670    1.7870 hn        1 MOL     -0.045703
    169 Ca1         2.1650   -0.0740   -1.4860 Ca        1 MOL      1.758166
    170 O24         3.1870    0.4920   -4.5420 oh        1 MOL     -0.805654
    171 H77         2.8780    0.4210   -5.4470 ho        1 MOL      0.388666
    172 H78         3.9950    0.9910   -4.6050 ho        1 MOL      0.388666
    173 O25         0.4350   -0.7090   -3.9400 oh        1 MOL     -0.805654
    174 H79         0.1770    0.0310   -4.4860 ho        1 MOL      0.388666
    175 H80         0.7850   -1.3590   -4.5560 ho        1 MOL      0.388666
    176 O26         1.3040    2.1100   -2.6400 oh        1 MOL     -0.805654
    177 H81         1.1770    3.0080   -2.3460 ho        1 MOL      0.388666
    178 H82         0.7880    2.0450   -3.4500 ho        1 MOL      0.388666
@<TRIPOS>BOND
     1    1    2 1   
     2    1    4 1   
     3    1    5 1   
     4    1    6 1   
     5    2    3 2   
     6    2    7 1   
     7    7    8 1   
     8    7   15 1   
     9    8    9 1   
    10    8   11 1   
    11    8   16 1   
    12    9   10 2   
    13    9   19 1   
    14   11   12 1   
    15   11   17 1   
    16   11   18 1   
    17   12   13 1   
    18   12   14 1   
    19   19   20 1   
    20   19   24 1   
    21   20   21 1   
    22   20   23 1   
    23   20   25 1   
    24   21   22 2   
    25   21   29 1   
    26   23   26 1   
    27   23   27 1   
    28   23   28 1   
    29   29   30 1   
    30   29   37 1   
    31   30   31 1   
    32   30   33 1   
    33   30   38 1   
    34   31   32 2   
    35   31   41 1   
    36   33   34 1   
    37   33   39 1   
    38   33   40 1   
    39   34   35 1   
    40   34   36 1   
    41   41   42 1   
    42   41   45 1   
    43   42   43 1   
    44   42   46 1   
    45   42   47 1   
    46   43   44 2   
    47   43   48 1   
    48   48   49 1   
    49   48   56 1   
    50   49   50 1   
    51   49   52 1   
    52   49   57 1   
    53   50   51 2   
    54   50   62 1   
    55   52   53 1   
    56   52   58 1   
    57   52   59 1   
    58   53   54 1   
    59   53   55 2   
    60   54   60 1   
    61   54   61 1   
    62   62   63 1   
    63   62   66 1   
    64   63   64 1   
    65   63   67 1   
    66   63   68 1   
    67   64   65 2   
    68   64   69 1   
    69   69   70 1   
    70   69   76 1   
    71   70   71 1   
    72   70   73 1   
    73   70   77 1   
    74   71   72 2   
    75   71   83 1   
    76   73   74 1   
    77   73   75 1   
    78   73   78 1   
    79   74   80 1   
    80   74   81 1   
    81   74   82 1   
    82   75   79 1   
    83   83   84 1   
    84   83   91 1   
    85   84   85 1   
    86   84   87 1   
    87   84   92 1   
    88   85   86 2   
    89   85  102 1   
    90   87   88 1   
    91   87   89 1   
    92   87   93 1   
    93   88   90 1   
    94   88   94 1   
    95   88   95 1   
    96   89   96 1   
    97   89   97 1   
    98   89   98 1   
    99   90   99 1   
   100   90  100 1   
   101   90  101 1   
   102  102  103 1   
   103  102  110 1   
   104  103  104 1   
   105  103  106 1   
   106  103  111 1   
   107  104  105 2   
   108  104  114 1   
   109  106  107 1   
   110  106  112 1   
   111  106  113 1   
   112  107  108 1   
   113  107  109 1   
   114  114  115 1   
   115  114  125 1   
   116  115  116 1   
   117  115  118 1   
   118  115  126 1   
   119  116  117 2   
   120  116  134 1   
   121  118  119 1   
   122  118  127 1   
   123  118  128 1   
   124  119  120 ar  
   125  119  121 ar  
   126  120  122 ar  
   127  120  129 1   
   128  121  123 ar  
   129  121  130 1   
   130  122  124 ar  
   131  122  131 1   
   132  123  124 ar  
   133  123  132 1   
   134  124  133 1   
   135  134  135 1   
   136  134  140 1   
   137  135  136 1   
   138  135  138 1   
   139  135  141 1   
   140  136  137 2   
   141  136  148 1   
   142  138  139 1   
   143  138  142 1   
   144  138  143 1   
   145  139  140 1   
   146  139  144 1   
   147  139  145 1   
   148  140  146 1   
   149  140  147 1   
   150  148  149 1   
   151  148  157 1   
   152  149  150 1   
   153  149  152 1   
   154  149  158 1   
   155  150  151 2   
   156  150  163 1   
   157  152  153 1   
   158  152  159 1   
   159  152  160 1   
   160  153  154 1   
   161  153  161 1   
   162  153  162 1   
   163  154  155 1   
   164  154  156 1   
   165  163  164 1   
   166  163  168 1   
   167  164  165 1   
   168  164  166 1   
   169  164  167 1   
   170  170  171 1   
   171  170  172 1   
   172  173  174 1   
   173  173  175 1   
   174  176  177 1   
   175  176  178 1   
@<TRIPOS>SUBSTRUCTURE
     1 MOL         1 TEMP              0 ****  ****    0 ROOT
