@<TRIPOS>MOLECULE
MOL
  189   185     1     0     0
SMALL
resp


@<TRIPOS>ATOM
      1 C1         -0.2340    1.8010    6.2660 c3        1 MOL     -0.362636
      2 C2         -0.5800    1.3920    4.8280 c         1 MOL      0.819193
      3 O1          0.3250    1.4820    3.9950 o         1 MOL     -0.649019
      4 H1         -0.5400    2.8330    6.4330 hc        1 MOL      0.092560
      5 H2         -0.7580    1.1500    6.9660 hc        1 MOL      0.092560
      6 H3          0.8410    1.7110    6.4220 hc        1 MOL      0.092560
      7 N1         -1.8020    0.9880    4.4750 n         1 MOL     -0.717012
      8 C3         -2.1710    1.0120    3.0220 c3        1 MOL      0.076036
      9 C4         -2.3670    2.4820    2.5640 c         1 MOL      0.513532
     10 O2         -3.1430    3.2290    3.1810 o         1 MOL     -0.566459
     11 C5         -3.5270    0.1940    2.8590 c3        1 MOL     -0.198568
     12 C6         -4.1210    0.2800    1.4330 c         1 MOL      0.748746
     13 O3         -3.3700    0.5560    0.3940 o         1 MOL     -0.686494
     14 O4         -5.3320    0.0590    1.2880 o         1 MOL     -0.686494
     15 H4         -2.5290    0.9470    5.1750 hn        1 MOL      0.368227
     16 H5         -1.3550    0.5620    2.4680 h1        1 MOL      0.081209
     17 H6         -4.2240    0.5700    3.6030 hc        1 MOL      0.065005
     18 H7         -3.3580   -0.8490    3.1130 hc        1 MOL      0.065005
     19 N2         -1.7160    2.9410    1.5040 n         1 MOL     -0.056567
     20 C7         -1.9060    4.3250    1.0880 c3        1 MOL     -0.314024
     21 C8         -3.1810    4.6720    0.2860 c         1 MOL      0.671940
     22 O5         -3.4100    5.8260   -0.0440 o         1 MOL     -0.595971
     23 C9         -0.6580    4.7850    0.2520 c3        1 MOL      0.212759
     24 C10         0.5390    5.0750    1.1240 c3        1 MOL     -0.134763
     25 C11         1.8730    5.2440    0.3070 c3        1 MOL     -0.028114
     26 C12         2.9960    5.5970    1.2450 c3        1 MOL      0.130405
     27 N3          4.1580    5.9890    0.4960 n4        1 MOL     -0.332423
     28 H8         -1.0520    2.3810    0.9860 hn        1 MOL      0.081058
     29 H9         -2.1020    4.9640    1.9580 h1        1 MOL      0.113699
     30 H10        -0.7730    5.7210   -0.2870 hc        1 MOL     -0.006317
     31 H11        -0.4310    3.9910   -0.4550 hc        1 MOL     -0.006317
     32 H12         0.6330    4.2540    1.8380 hc        1 MOL      0.055400
     33 H13         0.3190    5.9750    1.6900 hc        1 MOL      0.055400
     34 H14         1.8030    6.1830   -0.2560 hc        1 MOL      0.015852
     35 H15         2.1110    4.4220   -0.3660 hc        1 MOL      0.015852
     36 H16         3.1630    4.6510    1.7580 hx        1 MOL      0.050268
     37 H17         2.7760    6.4110    1.9290 hx        1 MOL      0.050268
     38 H18         4.9820    6.1390    1.0650 hn        1 MOL      0.305312
     39 H19         4.4550    5.2610   -0.1380 hn        1 MOL      0.305312
     40 H20         4.0330    6.8520    0.0020 hn        1 MOL      0.305312
     41 N4         -3.9260    3.6710   -0.1210 n         1 MOL     -0.451413
     42 C13        -4.9660    3.8020   -1.2080 c3        1 MOL      0.162512
     43 C14        -6.3420    3.3990   -0.8230 c         1 MOL      0.431991
     44 O6         -7.3360    3.8020   -1.4180 o         1 MOL     -0.546275
     45 C15        -4.4670    3.0680   -2.4430 c3        1 MOL      0.058304
     46 C16        -2.9740    3.0310   -2.6340 c         1 MOL      0.655974
     47 O7         -2.2630    2.2340   -1.9580 o         1 MOL     -0.640203
     48 O8         -2.4550    3.8390   -3.4240 o         1 MOL     -0.640203
     49 H21        -3.4590    2.7800   -0.0330 hn        1 MOL      0.150218
     50 H22        -5.0240    4.8790   -1.3620 h1        1 MOL      0.063206
     51 H23        -4.8640    3.7030   -3.2350 hc        1 MOL     -0.035860
     52 H24        -4.9070    2.0840   -2.5650 hc        1 MOL     -0.035860
     53 N5         -6.4680    2.5060    0.1710 n         1 MOL     -0.363550
     54 C17        -7.7530    1.8170    0.4360 c3        1 MOL     -0.034412
     55 C18        -8.0620    0.5590   -0.3000 c         1 MOL      0.401499
     56 O9         -9.1970    0.1000   -0.4170 o         1 MOL     -0.551416
     57 H25        -5.5900    2.1830    0.5570 hn        1 MOL      0.225629
     58 H26        -8.5810    2.5100    0.2970 h1        1 MOL      0.091893
     59 H27        -7.8320    1.6630    1.5200 h1        1 MOL      0.091893
     60 N6         -6.9950    0.0160   -0.8990 n         1 MOL     -0.098020
     61 C19        -7.1760   -1.1830   -1.7500 c3        1 MOL     -0.101008
     62 C20        -6.9600   -2.4490   -0.9090 c         1 MOL      0.486534
     63 O10        -7.2600   -3.5530   -1.3720 o         1 MOL     -0.548410
     64 C21        -6.0920   -1.3040   -2.9090 c3        1 MOL     -0.294897
     65 C22        -4.6500   -1.0600   -2.5350 c         1 MOL      0.857739
     66 O11        -4.1410   -1.6360   -1.5990 o         1 MOL     -0.813222
     67 O12        -3.8790   -0.2940   -3.1620 o         1 MOL     -0.813222
     68 H28        -6.0760    0.4260   -0.9080 hn        1 MOL      0.240023
     69 H29        -8.1820   -1.2090   -2.1710 h1        1 MOL      0.136342
     70 H30        -6.3410   -0.5440   -3.6440 hc        1 MOL      0.085605
     71 H31        -6.1360   -2.2840   -3.3820 hc        1 MOL      0.085605
     72 N7         -6.5330   -2.3040    0.3390 n         1 MOL     -0.313281
     73 C23        -6.1030   -3.3570    1.2850 c3        1 MOL      0.111329
     74 C24        -4.9600   -4.2260    0.9400 c         1 MOL      0.421783
     75 O13        -5.0080   -5.4690    1.0610 o         1 MOL     -0.560767
     76 H32        -6.2640   -1.3520    0.5580 hn        1 MOL      0.212187
     77 H33        -6.8790   -4.1040    1.4690 h1        1 MOL      0.025087
     78 H34        -5.9490   -2.9770    2.2920 h1        1 MOL      0.025087
     79 N8         -3.9180   -3.7000    0.3660 n         1 MOL     -0.087958
     80 C25        -2.5870   -4.3720    0.1480 c3        1 MOL     -0.489697
     81 C26        -1.4750   -3.3470    0.4480 c         1 MOL      0.820508
     82 O14        -1.5750   -2.1950    0.0430 o         1 MOL     -0.703136
     83 C27        -2.3420   -5.0130   -1.2390 c3        1 MOL      0.497867
     84 C28        -2.9960   -6.3820   -1.3290 c3        1 MOL     -0.516503
     85 O15        -2.8130   -4.1850   -2.2850 oh        1 MOL     -0.577482
     86 H35        -3.9850   -2.6980    0.2350 hn        1 MOL      0.188651
     87 H36        -2.5170   -5.1240    0.9410 h1        1 MOL      0.175787
     88 H37        -1.2790   -5.1800   -1.4340 h1        1 MOL      0.023066
     89 H38        -3.6250   -3.9040   -1.8540 ho        1 MOL      0.411870
     90 H39        -2.5320   -6.9310   -0.5100 hc        1 MOL      0.131081
     91 H40        -4.0470   -6.3470   -1.0430 hc        1 MOL      0.131081
     92 H41        -2.8770   -6.8210   -2.3180 hc        1 MOL      0.131081
     93 N9         -0.4280   -3.8250    1.1650 n         1 MOL     -0.686638
     94 C29         0.8160   -3.1060    1.3990 c3        1 MOL      0.147710
     95 C30         1.9480   -3.5490    0.3700 c         1 MOL      0.402201
     96 O16         2.2720   -4.7270    0.3140 o         1 MOL     -0.538791
     97 C31         1.1100   -3.2870    2.9380 c3        1 MOL     -0.028670
     98 C32         0.0860   -2.5890    3.8710 c3        1 MOL      0.120080
     99 C33         2.5160   -2.9140    3.3350 c3        1 MOL     -0.163183
    100 C34         0.2130   -3.0030    5.3050 c3        1 MOL     -0.210465
    101 H42        -0.4610   -4.7590    1.5350 hn        1 MOL      0.331448
    102 H43         0.7080   -2.0320    1.2230 h1        1 MOL      0.095652
    103 H44         1.1060   -4.3580    3.1040 hc        1 MOL      0.043156
    104 H45        -0.9350   -2.7770    3.5460 hc        1 MOL      0.005312
    105 H46         0.1820   -1.5220    3.6990 hc        1 MOL      0.005312
    106 H47         3.2250   -3.6400    2.9220 hc        1 MOL      0.034296
    107 H48         2.6680   -1.8690    3.0660 hc        1 MOL      0.034296
    108 H49         2.7800   -2.8880    4.3930 hc        1 MOL      0.034296
    109 H50         1.1760   -2.8320    5.7670 hc        1 MOL      0.046558
    110 H51        -0.5040   -2.4540    5.9190 hc        1 MOL      0.046558
    111 H52        -0.0720   -4.0580    5.2270 hc        1 MOL      0.046558
    112 N10         2.5340   -2.5810   -0.3080 n         1 MOL      0.027334
    113 C35         3.7440   -2.7640   -1.2050 c3        1 MOL     -0.245191
    114 C36         5.0570   -2.4500   -0.4110 c         1 MOL      0.426047
    115 O17         5.0460   -2.0960    0.7500 o         1 MOL     -0.379238
    116 C37         3.5450   -1.8930   -2.4130 c3        1 MOL      0.626394
    117 C38         2.2640   -2.3640   -3.0670 c3        1 MOL     -0.347172
    118 O18         3.3390   -0.5760   -2.0690 oh        1 MOL     -0.861944
    119 H53         2.1420   -1.6530   -0.2360 hn        1 MOL      0.069803
    120 H54         3.8090   -3.8150   -1.4890 h1        1 MOL      0.081044
    121 H55         4.3890   -2.0490   -3.0930 h1        1 MOL     -0.070396
    122 H56         2.4740   -0.5720   -1.6400 ho        1 MOL      0.521185
    123 H57         2.5460   -2.9150   -3.9720 hc        1 MOL      0.052421
    124 H58         1.5240   -2.8580   -2.4440 hc        1 MOL      0.052421
    125 H59         1.8090   -1.4600   -3.4650 hc        1 MOL      0.052421
    126 N11         6.2140   -2.5230   -1.0320 n         1 MOL     -0.268803
    127 C39         7.6020   -2.2010   -0.4620 c3        1 MOL     -0.111524
    128 C40         7.6350   -0.8220    0.1170 c         1 MOL      0.423211
    129 O19         7.8960   -0.6480    1.3450 o         1 MOL     -0.498152
    130 C41         8.7140   -2.3120   -1.5560 c3        1 MOL      0.221855
    131 C42         8.7530   -3.7340   -2.0180 c3        1 MOL     -0.255757
    132 O20         8.3340   -1.5330   -2.6050 oh        1 MOL     -0.627458
    133 H60         6.1400   -2.8820   -1.9700 hn        1 MOL      0.241361
    134 H61         7.8340   -2.8600    0.3780 h1        1 MOL      0.143921
    135 H62         9.7050   -2.0910   -1.1680 h1        1 MOL      0.066710
    136 H63         8.9760   -1.7240   -3.2950 ho        1 MOL      0.424778
    137 H64         9.4140   -3.8650   -2.8770 hc        1 MOL      0.076375
    138 H65         9.0380   -4.4590   -1.2500 hc        1 MOL      0.076375
    139 H66         7.7420   -4.0420   -2.3030 hc        1 MOL      0.076375
    140 N12         7.0060    0.0670   -0.6500 n         1 MOL     -0.182877
    141 C43         6.9160    1.5300   -0.4110 c3        1 MOL     -0.201353
    142 C44         5.7240    1.9140    0.4510 c         1 MOL      0.523846
    143 O21         5.4060    3.0680    0.6080 o         1 MOL     -0.614642
    144 C45         6.9850    2.3710   -1.6890 c3        1 MOL     -0.111381
    145 C46         5.7740    2.2340   -2.6000 c3        1 MOL     -0.037346
    146 C47         6.0520    3.0710   -3.8070 c3        1 MOL     -0.086514
    147 C48         4.9380    3.0180   -4.8730 c3        1 MOL      0.050257
    148 N13         5.0120    1.7750   -5.7050 n4        1 MOL     -0.326844
    149 H67         6.8770   -0.1890   -1.6220 hn        1 MOL      0.227071
    150 H68         7.7160    1.9550    0.1990 h1        1 MOL      0.162106
    151 H69         7.8750    2.0300   -2.2180 hc        1 MOL      0.074045
    152 H70         7.1700    3.4020   -1.3870 hc        1 MOL      0.074045
    153 H71         4.8690    2.7080   -2.2390 hc        1 MOL      0.057474
    154 H72         5.6200    1.1850   -2.8470 hc        1 MOL      0.057474
    155 H73         7.0860    2.8740   -4.0960 hc        1 MOL      0.042963
    156 H74         6.0550    4.0780   -3.3750 hc        1 MOL      0.042963
    157 H75         4.9630    3.8780   -5.5490 hx        1 MOL      0.085507
    158 H76         3.9500    3.1310   -4.4120 hx        1 MOL      0.085507
    159 H77         4.0680    1.5400   -5.9800 hn        1 MOL      0.275898
    160 H78         5.6230    1.8570   -6.4980 hn        1 MOL      0.275898
    161 H79         5.3570    0.9870   -5.1710 hn        1 MOL      0.275898
    162 N14         5.0450    0.9390    1.0100 n         1 MOL     -0.007169
    163 C49         4.0040    1.2010    2.0590 c3        1 MOL     -0.012162
    164 C50         4.5550    0.5460    3.3330 c         1 MOL      0.364186
    165 O22         4.6370    1.1340    4.4000 o         1 MOL     -0.532952
    166 C51         2.6810    0.5900    1.6130 c3        1 MOL     -0.042436
    167 C52         2.1310    1.3890    0.4640 c3        1 MOL     -0.128119
    168 C53         0.8830    0.7350   -0.1170 c         1 MOL      0.890846
    169 O23         0.9910   -0.3820   -0.6710 o         1 MOL     -0.790587
    170 O24        -0.2540    1.2230   -0.0900 o         1 MOL     -0.790587
    171 H80         5.5330    0.0570    1.0180 hn        1 MOL     -0.104059
    172 H81         3.9530    2.2850    2.1620 h1        1 MOL      0.101561
    173 H82         2.1330    0.7020    2.5420 hc        1 MOL      0.079176
    174 H83         2.7420   -0.4480    1.3010 hc        1 MOL      0.079176
    175 H84         2.9070    1.5410   -0.2810 hc        1 MOL      0.008933
    176 H85         1.9290    2.4260    0.7380 hc        1 MOL      0.008933
    177 N15         5.1570   -0.6550    3.2110 n         1 MOL      0.025119
    178 C54         6.0070   -1.3530    4.2830 c3        1 MOL     -0.292202
    179 H86         6.9500   -1.6780    3.8440 h1        1 MOL      0.118914
    180 H87         6.2060   -0.6590    5.0990 h1        1 MOL      0.118914
    181 H88         5.4680   -2.2200    4.6670 h1        1 MOL      0.118914
    182 H89         4.9480   -1.1960    2.3920 hn        1 MOL      0.115943
    183 Ca1        -1.8070   -0.3150   -1.6280 Ca        1 MOL      1.849630
    184 O25        -1.3050   -2.1740   -3.4290 oh        1 MOL     -0.856736
    185 H90        -1.5640   -3.0150   -3.7990 ho        1 MOL      0.416624
    186 H91        -0.8080   -1.7430   -4.1350 ho        1 MOL      0.416624
    187 O26        -0.2380    0.5380   -3.8880 oh        1 MOL     -0.856736
    188 H92         0.6300    0.9200   -3.8630 ho        1 MOL      0.416624
    189 H93        -0.5700    0.7440   -4.7660 ho        1 MOL      0.416624
@<TRIPOS>BOND
     1    1    2 1   
     2    1    4 1   
     3    1    5 1   
     4    1    6 1   
     5    2    3 2   
     6    2    7 1   
     7    7    8 1   
     8    7   15 1   
     9    8    9 1   
    10    8   11 1   
    11    8   16 1   
    12    9   10 2   
    13    9   19 1   
    14   11   12 1   
    15   11   17 1   
    16   11   18 1   
    17   12   13 1   
    18   12   14 1   
    19   19   20 1   
    20   19   28 1   
    21   20   21 1   
    22   20   23 1   
    23   20   29 1   
    24   21   22 2   
    25   21   41 1   
    26   23   24 1   
    27   23   30 1   
    28   23   31 1   
    29   24   25 1   
    30   24   32 1   
    31   24   33 1   
    32   25   26 1   
    33   25   34 1   
    34   25   35 1   
    35   26   27 1   
    36   26   36 1   
    37   26   37 1   
    38   27   38 1   
    39   27   39 1   
    40   27   40 1   
    41   41   42 1   
    42   41   49 1   
    43   42   43 1   
    44   42   45 1   
    45   42   50 1   
    46   43   44 2   
    47   43   53 1   
    48   45   46 1   
    49   45   51 1   
    50   45   52 1   
    51   46   47 1   
    52   46   48 1   
    53   53   54 1   
    54   53   57 1   
    55   54   55 1   
    56   54   58 1   
    57   54   59 1   
    58   55   56 2   
    59   55   60 1   
    60   60   61 1   
    61   60   68 1   
    62   61   62 1   
    63   61   64 1   
    64   61   69 1   
    65   62   63 2   
    66   62   72 1   
    67   64   65 1   
    68   64   70 1   
    69   64   71 1   
    70   65   66 1   
    71   65   67 1   
    72   72   73 1   
    73   72   76 1   
    74   73   74 1   
    75   73   77 1   
    76   73   78 1   
    77   74   75 2   
    78   74   79 1   
    79   79   80 1   
    80   79   86 1   
    81   80   81 1   
    82   80   83 1   
    83   80   87 1   
    84   81   82 2   
    85   81   93 1   
    86   83   84 1   
    87   83   85 1   
    88   83   88 1   
    89   84   90 1   
    90   84   91 1   
    91   84   92 1   
    92   85   89 1   
    93   93   94 1   
    94   93  101 1   
    95   94   95 1   
    96   94   97 1   
    97   94  102 1   
    98   95   96 2   
    99   95  112 1   
   100   97   98 1   
   101   97   99 1   
   102   97  103 1   
   103   98  100 1   
   104   98  104 1   
   105   98  105 1   
   106   99  106 1   
   107   99  107 1   
   108   99  108 1   
   109  100  109 1   
   110  100  110 1   
   111  100  111 1   
   112  112  113 1   
   113  112  119 1   
   114  113  114 1   
   115  113  116 1   
   116  113  120 1   
   117  114  115 2   
   118  114  126 1   
   119  116  117 1   
   120  116  118 1   
   121  116  121 1   
   122  117  123 1   
   123  117  124 1   
   124  117  125 1   
   125  118  122 1   
   126  126  127 1   
   127  126  133 1   
   128  127  128 1   
   129  127  130 1   
   130  127  134 1   
   131  128  129 2   
   132  128  140 1   
   133  130  131 1   
   134  130  132 1   
   135  130  135 1   
   136  131  137 1   
   137  131  138 1   
   138  131  139 1   
   139  132  136 1   
   140  140  141 1   
   141  140  149 1   
   142  141  142 1   
   143  141  144 1   
   144  141  150 1   
   145  142  143 2   
   146  142  162 1   
   147  144  145 1   
   148  144  151 1   
   149  144  152 1   
   150  145  146 1   
   151  145  153 1   
   152  145  154 1   
   153  146  147 1   
   154  146  155 1   
   155  146  156 1   
   156  147  148 1   
   157  147  157 1   
   158  147  158 1   
   159  148  159 1   
   160  148  160 1   
   161  148  161 1   
   162  162  163 1   
   163  162  171 1   
   164  163  164 1   
   165  163  166 1   
   166  163  172 1   
   167  164  165 2   
   168  164  177 1   
   169  166  167 1   
   170  166  173 1   
   171  166  174 1   
   172  167  168 1   
   173  167  175 1   
   174  167  176 1   
   175  168  169 1   
   176  168  170 1   
   177  177  178 1   
   178  177  182 1   
   179  178  179 1   
   180  178  180 1   
   181  178  181 1   
   182  184  185 1   
   183  184  186 1   
   184  187  188 1   
   185  187  189 1   
@<TRIPOS>SUBSTRUCTURE
     1 MOL         1 TEMP              0 ****  ****    0 ROOT
