@<TRIPOS>MOLECULE
MOL
  179   176     1     0     0
SMALL
resp


@<TRIPOS>ATOM
      1 C1          2.2340    2.7830    4.8780 c3        1 MOL     -0.373215
      2 C2          1.7010    2.6860    3.4780 c         1 MOL      0.701425
      3 O1          2.4090    2.4210    2.5250 o         1 MOL     -0.622772
      4 H1          1.5440    2.2930    5.5640 hc        1 MOL      0.094336
      5 H2          3.2070    2.2940    4.9310 hc        1 MOL      0.094336
      6 H3          2.3390    3.8310    5.1560 hc        1 MOL      0.094336
      7 N1          0.3880    2.8290    3.4100 n         1 MOL     -0.608760
      8 C3         -0.3970    2.6450    2.1380 c3        1 MOL      0.064519
      9 C4         -0.5250    4.0120    1.4260 c         1 MOL      0.617233
     10 O2         -1.0800    4.9400    1.9450 o         1 MOL     -0.566230
     11 C5         -1.6940    1.9060    2.5040 c3        1 MOL     -0.387405
     12 C6         -2.7010    1.6920    1.4220 c         1 MOL      0.921324
     13 O3         -3.8000    1.2450    1.7170 o         1 MOL     -0.742753
     14 O4         -2.3780    1.9660    0.2760 o         1 MOL     -0.742753
     15 H4         -0.1850    2.8570    4.2410 hn        1 MOL      0.343694
     16 H5          0.1590    1.8970    1.5590 h1        1 MOL      0.081165
     17 H6         -2.1780    2.4900    3.2780 hc        1 MOL      0.094724
     18 H7         -1.4070    0.9120    2.8230 hc        1 MOL      0.094724
     19 N2          0.1350    4.1990    0.2780 n         1 MOL     -0.413878
     20 C7          0.4180    5.4760   -0.5330 c3        1 MOL     -0.030468
     21 C8         -0.7820    5.7130   -1.5270 c         1 MOL      0.668458
     22 O5         -0.8670    6.7970   -1.9960 o         1 MOL     -0.577524
     23 C9          1.8290    5.4280   -1.1110 c3        1 MOL     -0.309075
     24 C10         2.9580    5.6560   -0.0520 c3        1 MOL      0.118511
     25 C11         3.1620    7.0990    0.4340 c3        1 MOL     -0.123498
     26 C12         4.2180    7.3300    1.5390 c3        1 MOL     -0.139963
     27 N3          4.0810    6.3760    2.7270 n4        1 MOL     -0.264270
     28 H8          0.6150    3.4550   -0.2050 hn        1 MOL      0.289309
     29 H9          0.2460    6.2560    0.2060 h1        1 MOL      0.076671
     30 H10         1.8750    6.2360   -1.8320 hc        1 MOL      0.120631
     31 H11         2.0370    4.4570   -1.5670 hc        1 MOL      0.120631
     32 H12         3.9120    5.2900   -0.4320 hc        1 MOL      0.031348
     33 H13         2.7630    5.0860    0.8510 hc        1 MOL      0.031348
     34 H14         2.2090    7.4850    0.7940 hc        1 MOL      0.084488
     35 H15         3.3770    7.8380   -0.3380 hc        1 MOL      0.084488
     36 H16         4.0890    8.3570    1.8700 hx        1 MOL      0.134591
     37 H17         5.2140    7.3220    1.0800 hx        1 MOL      0.134591
     38 H18         4.1940    5.3900    2.5460 hn        1 MOL      0.308134
     39 H19         4.7510    6.5160    3.4620 hn        1 MOL      0.308134
     40 H20         3.2470    6.5170    3.2840 hn        1 MOL      0.308134
     41 N4         -1.7160    4.7760   -1.5820 n         1 MOL     -0.461858
     42 C13        -2.9120    4.8620   -2.4160 c3        1 MOL      0.149891
     43 C14        -4.2370    4.7160   -1.5420 c         1 MOL      0.341708
     44 O6         -5.3180    5.0970   -2.0000 o         1 MOL     -0.518239
     45 C15        -2.8510    3.9770   -3.6310 c3        1 MOL     -0.274967
     46 C16        -2.6510    2.5160   -3.2150 c         1 MOL      0.819048
     47 O7         -3.5010    1.9470   -2.4360 o         1 MOL     -0.774534
     48 O8         -1.5870    1.8840   -3.4480 o         1 MOL     -0.774534
     49 H21        -1.5350    3.9870   -0.9790 hn        1 MOL      0.188105
     50 H22        -2.9560    5.8950   -2.7420 h1        1 MOL      0.088718
     51 H23        -2.0480    4.3780   -4.2420 hc        1 MOL      0.076694
     52 H24        -3.6920    4.0960   -4.3160 hc        1 MOL      0.076694
     53 N5         -4.2590    4.0170   -0.4100 n         1 MOL     -0.090364
     54 C17        -5.3850    3.8920    0.4940 c3        1 MOL     -0.185931
     55 C18        -6.4640    2.8510    0.0610 c         1 MOL      0.574470
     56 O9         -7.6560    3.0490    0.2190 o         1 MOL     -0.557152
     57 H25        -3.4020    3.5360   -0.1730 hn        1 MOL      0.137525
     58 H26        -5.9300    4.8290    0.6530 h1        1 MOL      0.091031
     59 H27        -5.0320    3.5050    1.4450 h1        1 MOL      0.091031
     60 N6         -5.9790    1.6260   -0.3700 n         1 MOL     -0.287051
     61 C19        -6.8220    0.4450   -0.6700 c3        1 MOL     -0.030997
     62 C20        -7.0380   -0.5850    0.4340 c         1 MOL      0.383619
     63 O10        -7.7070   -1.5940    0.2230 o         1 MOL     -0.465972
     64 C21        -6.3080   -0.2620   -1.9420 c3        1 MOL     -0.116826
     65 C22        -4.9700   -0.9960   -1.9410 c         1 MOL      0.810611
     66 N7         -4.8370   -2.0450   -2.7610 n         1 MOL     -0.860551
     67 O11        -4.0220   -0.5900   -1.2820 o         1 MOL     -0.585114
     68 H28        -5.0050    1.6000   -0.6200 hn        1 MOL      0.248680
     69 H29        -7.8500    0.7540   -0.8640 h1        1 MOL      0.113961
     70 H30        -6.2720    0.4160   -2.7940 hc        1 MOL      0.047473
     71 H31        -7.1030   -0.9650   -2.1510 hc        1 MOL      0.047473
     72 H32        -5.5930   -2.3600   -3.3600 hn        1 MOL      0.374295
     73 H33        -3.9550   -2.5270   -2.8040 hn        1 MOL      0.374295
     74 N8         -6.3790   -0.4150    1.6090 n         1 MOL     -0.339994
     75 C23        -6.2400   -1.4310    2.6310 c3        1 MOL     -0.118581
     76 C24        -4.9520   -2.3540    2.4610 c         1 MOL      0.497067
     77 O12        -4.9770   -3.3730    3.1740 o         1 MOL     -0.563779
     78 H34        -5.8460    0.4310    1.7540 hn        1 MOL      0.294492
     79 H35        -7.1240   -2.0800    2.6480 h1        1 MOL      0.109843
     80 H36        -6.0760   -0.9380    3.5890 h1        1 MOL      0.109843
     81 N9         -4.0090   -2.0990    1.5280 n         1 MOL     -0.211817
     82 C25        -2.8920   -3.0940    1.2990 c3        1 MOL      0.294071
     83 C26        -1.4630   -2.4110    1.2400 c         1 MOL      0.147024
     84 O13        -1.2770   -1.2490    0.8450 o         1 MOL     -0.531813
     85 C27        -3.1230   -3.9950    0.0980 c3        1 MOL      0.021071
     86 C28        -4.3700   -4.9070    0.1070 ca        1 MOL      0.212088
     87 C29        -5.6130   -4.4780   -0.4690 ca        1 MOL     -0.367836
     88 C30        -4.2630   -6.2830    0.4480 ca        1 MOL     -0.367836
     89 C31        -6.6630   -5.4090   -0.5910 ca        1 MOL     -0.005301
     90 C32        -5.3440   -7.1630    0.3850 ca        1 MOL     -0.005301
     91 C33        -6.5460   -6.7460   -0.2190 ca        1 MOL      0.129357
     92 O14        -7.5720   -7.6380   -0.3890 oh        1 MOL     -0.464989
     93 H37        -3.9820   -1.2300    1.0150 hn        1 MOL      0.131422
     94 H38        -2.9090   -3.8630    2.0710 h1        1 MOL     -0.000052
     95 H39        -2.2540   -4.6380   -0.0450 hc        1 MOL     -0.026312
     96 H40        -3.1470   -3.3040   -0.7470 hc        1 MOL     -0.026312
     97 H41        -5.6960   -3.4630   -0.8380 ha        1 MOL      0.150920
     98 H42        -3.2690   -6.6010    0.7110 ha        1 MOL      0.150920
     99 H43        -7.6100   -5.1740   -1.0610 ha        1 MOL      0.085926
    100 H44        -5.1530   -8.2030    0.5890 ha        1 MOL      0.085926
    101 H45        -7.3930   -8.5780   -0.2570 ho        1 MOL      0.368314
    102 N10        -0.3470   -3.1750    1.4410 n         1 MOL     -0.259095
    103 C34         1.1080   -2.7540    1.4140 c3        1 MOL     -0.121428
    104 C35         1.9590   -3.7960    0.6710 c         1 MOL      0.398109
    105 O15         1.9280   -5.0160    0.9340 o         1 MOL     -0.530707
    106 C36         1.6370   -2.6470    2.9030 c3        1 MOL      0.113113
    107 C37         0.8960   -1.5300    3.7220 c3        1 MOL     -0.128029
    108 C38         3.1440   -2.2990    2.9800 c3        1 MOL     -0.191754
    109 C39         0.8920   -1.9490    5.1650 c3        1 MOL     -0.361268
    110 H46        -0.4940   -4.0490    1.9270 hn        1 MOL      0.269001
    111 H47         1.2800   -1.8120    0.8890 h1        1 MOL      0.176641
    112 H48         1.4750   -3.6000    3.4190 hc        1 MOL      0.054805
    113 H49        -0.1330   -1.3910    3.3980 hc        1 MOL      0.130625
    114 H50         1.4070   -0.5730    3.6350 hc        1 MOL      0.130625
    115 H51         3.7780   -2.8200    2.2640 hc        1 MOL      0.034662
    116 H52         3.3530   -1.3280    2.5370 hc        1 MOL      0.034662
    117 H53         3.6560   -2.2820    3.9480 hc        1 MOL      0.034662
    118 H54         1.9220   -2.2780    5.2900 hc        1 MOL      0.094473
    119 H55         0.6930   -1.1370    5.8630 hc        1 MOL      0.094473
    120 H56         0.2300   -2.7880    5.3540 hc        1 MOL      0.094473
    121 N11         2.7830   -3.2960   -0.2500 n         1 MOL     -0.061763
    122 C40         3.8560   -4.0390   -0.9520 c3        1 MOL     -0.069961
    123 C41         5.1930   -3.7010   -0.3140 c         1 MOL      0.609110
    124 O16         5.3850   -2.6780    0.3940 o         1 MOL     -0.448640
    125 C42         3.9030   -3.6320   -2.4330 c3        1 MOL     -0.154933
    126 O17         3.9520   -2.2430   -2.6860 oh        1 MOL     -0.401005
    127 H57         2.5200   -2.3630   -0.5170 hn        1 MOL      0.064504
    128 H58         3.8510   -5.1300   -0.8890 h1        1 MOL      0.088701
    129 H59         3.0420   -4.0020   -2.9970 h1        1 MOL      0.098286
    130 H60         4.7330   -4.0630   -2.9900 h1        1 MOL      0.098286
    131 H61         3.1670   -1.9860   -3.1780 ho        1 MOL      0.384925
    132 N12         6.1850   -4.5100   -0.6700 n         1 MOL     -0.566962
    133 C43         7.6460   -4.2590   -0.5850 c3        1 MOL      0.274598
    134 C44         7.9760   -2.8230   -0.9940 c         1 MOL      0.395741
    135 O18         8.6140   -2.0820   -0.2320 o         1 MOL     -0.496906
    136 C45         8.4720   -5.3200   -1.2400 c3        1 MOL     -0.309755
    137 H62         5.9130   -5.3280   -1.2020 hn        1 MOL      0.324156
    138 H63         7.9480   -4.3620    0.4620 h1        1 MOL      0.057980
    139 H64         8.3010   -6.2920   -0.7640 hc        1 MOL      0.093630
    140 H65         8.1490   -5.4360   -2.2670 hc        1 MOL      0.093630
    141 H66         9.4880   -4.9380   -1.1580 hc        1 MOL      0.093630
    142 N13         7.6910   -2.3410   -2.2020 n         1 MOL     -0.381922
    143 C46         7.8900   -0.9790   -2.6670 c3        1 MOL      0.168755
    144 C47         7.1500    0.1480   -1.8480 c         1 MOL      0.314378
    145 O19         7.6210    1.3270   -1.9280 o         1 MOL     -0.538102
    146 C48         7.4750   -0.9710   -4.1200 c3        1 MOL     -0.291709
    147 H67         7.2230   -3.0700   -2.7240 hn        1 MOL      0.265354
    148 H68         8.9420   -0.7090   -2.5840 h1        1 MOL      0.087792
    149 H69         6.4330   -1.2810   -4.0230 hc        1 MOL      0.082869
    150 H70         7.6130    0.0430   -4.4970 hc        1 MOL      0.082869
    151 H71         8.1480   -1.5840   -4.7140 hc        1 MOL      0.082869
    152 N14         6.1230   -0.1720   -1.0890 n         1 MOL      0.187392
    153 C49         5.4310    0.7930   -0.2070 c3        1 MOL     -0.016895
    154 C50         6.0700    0.8040    1.1980 c         1 MOL      0.413421
    155 O20         6.4850    1.8460    1.7060 o         1 MOL     -0.556999
    156 C51         3.9310    0.5140   -0.1530 c3        1 MOL      0.198599
    157 C52         2.9930    1.0180   -1.3150 c3        1 MOL     -0.185602
    158 C53         1.5130    0.7380   -1.0600 c         1 MOL      0.844918
    159 O21         0.6500    1.6000   -1.0280 o         1 MOL     -0.786245
    160 O22         1.0950   -0.4530   -1.0480 o         1 MOL     -0.786245
    161 H72         5.8260   -1.1390   -1.0910 hn        1 MOL     -0.204296
    162 H73         5.5290    1.8190   -0.5660 h1        1 MOL      0.051609
    163 H74         3.6490    1.0390    0.7510 hc        1 MOL     -0.039305
    164 H75         3.8080   -0.5410    0.0940 hc        1 MOL     -0.039305
    165 H76         3.4140    0.4960   -2.1730 hc        1 MOL      0.008911
    166 H77         3.1290    2.0920   -1.4120 hc        1 MOL      0.008911
    167 N15         6.3740   -0.3410    1.8280 n         1 MOL     -0.144951
    168 C54         7.3350   -0.4360    2.9300 c3        1 MOL     -0.122277
    169 H78         6.8310   -0.8130    3.8190 h1        1 MOL      0.069368
    170 H79         8.1400   -1.1160    2.6540 h1        1 MOL      0.069368
    171 H80         7.7480    0.5510    3.1380 h1        1 MOL      0.069368
    172 H81         6.1290   -1.1910    1.3380 hn        1 MOL      0.189395
    173 Ca1        -1.5470    0.2630   -1.4470 Ca        1 MOL      1.806936
    174 O23        -0.5580   -2.4480   -1.9270 oh        1 MOL     -0.865576
    175 H82         0.3520   -2.2410   -1.7110 ho        1 MOL      0.414579
    176 H83        -0.5520   -3.3890   -2.1340 ho        1 MOL      0.414579
    177 O24        -2.2090   -0.8590   -3.8210 oh        1 MOL     -0.865576
    178 H84        -2.4680   -1.7680   -3.9210 ho        1 MOL      0.414579
    179 H85        -1.7750   -0.6410   -4.6500 ho        1 MOL      0.414579
@<TRIPOS>BOND
     1    1    2 1   
     2    1    4 1   
     3    1    5 1   
     4    1    6 1   
     5    2    3 2   
     6    2    7 1   
     7    7    8 1   
     8    7   15 1   
     9    8    9 1   
    10    8   11 1   
    11    8   16 1   
    12    9   10 2   
    13    9   19 1   
    14   11   12 1   
    15   11   17 1   
    16   11   18 1   
    17   12   13 1   
    18   12   14 1   
    19   19   20 1   
    20   19   28 1   
    21   20   21 1   
    22   20   23 1   
    23   20   29 1   
    24   21   22 2   
    25   21   41 1   
    26   23   24 1   
    27   23   30 1   
    28   23   31 1   
    29   24   25 1   
    30   24   32 1   
    31   24   33 1   
    32   25   26 1   
    33   25   34 1   
    34   25   35 1   
    35   26   27 1   
    36   26   36 1   
    37   26   37 1   
    38   27   38 1   
    39   27   39 1   
    40   27   40 1   
    41   41   42 1   
    42   41   49 1   
    43   42   43 1   
    44   42   45 1   
    45   42   50 1   
    46   43   44 2   
    47   43   53 1   
    48   45   46 1   
    49   45   51 1   
    50   45   52 1   
    51   46   47 1   
    52   46   48 1   
    53   53   54 1   
    54   53   57 1   
    55   54   55 1   
    56   54   58 1   
    57   54   59 1   
    58   55   56 2   
    59   55   60 1   
    60   60   61 1   
    61   60   68 1   
    62   61   62 1   
    63   61   64 1   
    64   61   69 1   
    65   62   63 2   
    66   62   74 1   
    67   64   65 1   
    68   64   70 1   
    69   64   71 1   
    70   65   66 1   
    71   65   67 2   
    72   66   72 1   
    73   66   73 1   
    74   74   75 1   
    75   74   78 1   
    76   75   76 1   
    77   75   79 1   
    78   75   80 1   
    79   76   77 2   
    80   76   81 1   
    81   81   82 1   
    82   81   93 1   
    83   82   83 1   
    84   82   85 1   
    85   82   94 1   
    86   83   84 2   
    87   83  102 1   
    88   85   86 1   
    89   85   95 1   
    90   85   96 1   
    91   86   87 ar  
    92   86   88 ar  
    93   87   89 ar  
    94   87   97 1   
    95   88   90 ar  
    96   88   98 1   
    97   89   91 ar  
    98   89   99 1   
    99   90   91 ar  
   100   90  100 1   
   101   91   92 1   
   102   92  101 1   
   103  102  103 1   
   104  102  110 1   
   105  103  104 1   
   106  103  106 1   
   107  103  111 1   
   108  104  105 2   
   109  104  121 1   
   110  106  107 1   
   111  106  108 1   
   112  106  112 1   
   113  107  109 1   
   114  107  113 1   
   115  107  114 1   
   116  108  115 1   
   117  108  116 1   
   118  108  117 1   
   119  109  118 1   
   120  109  119 1   
   121  109  120 1   
   122  121  122 1   
   123  121  127 1   
   124  122  123 1   
   125  122  125 1   
   126  122  128 1   
   127  123  124 2   
   128  123  132 1   
   129  125  126 1   
   130  125  129 1   
   131  125  130 1   
   132  126  131 1   
   133  132  133 1   
   134  132  137 1   
   135  133  134 1   
   136  133  136 1   
   137  133  138 1   
   138  134  135 2   
   139  134  142 1   
   140  136  139 1   
   141  136  140 1   
   142  136  141 1   
   143  142  143 1   
   144  142  147 1   
   145  143  144 1   
   146  143  146 1   
   147  143  148 1   
   148  144  145 2   
   149  144  152 1   
   150  146  149 1   
   151  146  150 1   
   152  146  151 1   
   153  152  153 1   
   154  152  161 1   
   155  153  154 1   
   156  153  156 1   
   157  153  162 1   
   158  154  155 2   
   159  154  167 1   
   160  156  157 1   
   161  156  163 1   
   162  156  164 1   
   163  157  158 1   
   164  157  165 1   
   165  157  166 1   
   166  158  159 1   
   167  158  160 1   
   168  167  168 1   
   169  167  172 1   
   170  168  169 1   
   171  168  170 1   
   172  168  171 1   
   173  174  175 1   
   174  174  176 1   
   175  177  178 1   
   176  177  179 1   
@<TRIPOS>SUBSTRUCTURE
     1 MOL         1 TEMP              0 ****  ****    0 ROOT
