@<TRIPOS>MOLECULE
MOL
  189   185     1     0     0
SMALL
resp


@<TRIPOS>ATOM
      1 C1          0.9780    3.9410   -5.1750 c3        1 MOL     -0.292652
      2 C2          1.0760    2.9910   -4.0290 c         1 MOL      0.837707
      3 O1          0.0700    2.8150   -3.3220 o         1 MOL     -0.671087
      4 H1         -0.0240    4.3680   -5.2060 hc        1 MOL      0.064829
      5 H2          1.7090    4.7400   -5.0500 hc        1 MOL      0.064829
      6 H3          1.1750    3.4100   -6.1060 hc        1 MOL      0.064829
      7 N1          2.1960    2.3640   -3.6930 n         1 MOL     -0.694583
      8 C3          2.5100    2.0180   -2.3000 c3        1 MOL      0.270427
      9 C4          2.8680    3.3640   -1.6090 c         1 MOL      0.421342
     10 O2          3.6700    4.2330   -2.0110 o         1 MOL     -0.587128
     11 C5          3.7350    1.1050   -2.3650 c3        1 MOL     -0.356677
     12 C6          4.1330    0.5410   -1.0470 c         1 MOL      0.764069
     13 O3          3.5590    0.8460    0.0070 o         1 MOL     -0.631298
     14 O4          5.0140   -0.3220   -0.9680 o         1 MOL     -0.631298
     15 H4          2.9350    2.3510   -4.3780 hn        1 MOL      0.331223
     16 H5          1.6860    1.4830   -1.8270 h1        1 MOL     -0.008461
     17 H6          4.6160    1.5500   -2.8190 hc        1 MOL      0.094111
     18 H7          3.3640    0.2690   -2.9560 hc        1 MOL      0.094111
     19 N2          2.0290    3.5410   -0.5970 n         1 MOL      0.041915
     20 C7          2.0460    4.7780    0.2280 c3        1 MOL     -0.146342
     21 C8          2.7870    4.6210    1.5390 c         1 MOL      0.580346
     22 O5          2.8510    5.6370    2.2130 o         1 MOL     -0.571782
     23 C9          0.6270    5.3650    0.4050 c3        1 MOL     -0.006602
     24 C10        -0.3380    5.6370   -0.8930 c3        1 MOL     -0.019384
     25 C11         0.5270    6.2090   -1.9890 c3        1 MOL     -0.178043
     26 C12         1.3710    7.4560   -1.7400 c3        1 MOL      0.037514
     27 N3          2.0810    7.8910   -2.9730 n4        1 MOL     -0.351056
     28 H8          1.2920    2.8730   -0.4070 hn        1 MOL      0.130723
     29 H9          2.6850    5.4660   -0.3190 h1        1 MOL      0.075840
     30 H10         0.6760    6.3480    0.8800 hc        1 MOL      0.025212
     31 H11         0.0090    4.8130    1.1220 hc        1 MOL      0.025212
     32 H12        -1.1590    6.3350   -0.7160 hc        1 MOL      0.050148
     33 H13        -0.7790    4.7450   -1.3180 hc        1 MOL      0.050148
     34 H14        -0.1210    6.4820   -2.8300 hc        1 MOL      0.069045
     35 H15         1.1610    5.3800   -2.2870 hc        1 MOL      0.069045
     36 H16         2.1210    7.2580   -0.9770 hx        1 MOL      0.082440
     37 H17         0.7170    8.2820   -1.4690 hx        1 MOL      0.082440
     38 H18         2.6190    7.1450   -3.4020 hn        1 MOL      0.318874
     39 H19         1.5430    8.4290   -3.6340 hn        1 MOL      0.318874
     40 H20         2.6790    8.6600   -2.7280 hn        1 MOL      0.318874
     41 N4          3.3890    3.4730    1.8220 n         1 MOL     -0.300985
     42 C13         4.2630    3.3020    2.9780 c3        1 MOL     -0.117582
     43 C14         5.5320    2.4570    2.7140 c         1 MOL      0.403959
     44 O6          6.3320    2.1980    3.6520 o         1 MOL     -0.466579
     45 C15         3.5200    2.8820    4.2710 c3        1 MOL     -0.045102
     46 C16         2.6140    1.7050    4.0530 c         1 MOL      0.853146
     47 O7          2.7280    1.0510    3.0100 o         1 MOL     -0.735043
     48 O8          1.8140    1.3590    4.9580 o         1 MOL     -0.735043
     49 H21         3.2860    2.7100    1.1640 hn        1 MOL      0.082603
     50 H22         4.6270    4.2890    3.2380 h1        1 MOL      0.103347
     51 H23         2.8680    3.6410    4.7010 hc        1 MOL      0.022774
     52 H24         4.2210    2.6070    5.0590 hc        1 MOL      0.022774
     53 N5          5.6940    1.9230    1.4870 n         1 MOL     -0.178850
     54 C17         6.9740    1.3950    0.9870 c3        1 MOL     -0.082240
     55 C18         7.3110    0.1230    1.6570 c         1 MOL      0.447125
     56 O9          8.3800    0.0890    2.3670 o         1 MOL     -0.553803
     57 H25         4.9230    2.0570    0.8430 hn        1 MOL      0.173953
     58 H26         7.7460    2.1580    0.9830 h1        1 MOL      0.073308
     59 H27         6.9380    1.1040   -0.0620 h1        1 MOL      0.073308
     60 N6          6.4780   -0.9320    1.4750 n         1 MOL     -0.044960
     61 C19         6.7390   -2.2840    1.8490 c3        1 MOL     -0.017693
     62 C20         6.8650   -3.3220    0.7730 c         1 MOL      0.340257
     63 O10         7.1760   -4.5030    0.9600 o         1 MOL     -0.508509
     64 C21         5.7140   -2.6700    2.8280 c3        1 MOL     -0.273318
     65 C22         4.3100   -2.3370    2.3970 c         1 MOL      0.779316
     66 O11         3.4700   -1.9750    3.2310 o         1 MOL     -0.734175
     67 O12         3.9800   -2.4210    1.2240 o         1 MOL     -0.734175
     68 H28         5.7890   -0.8300    0.7440 hn        1 MOL     -0.042049
     69 H29         7.6660   -2.3190    2.4230 h1        1 MOL      0.105615
     70 H30         5.9870   -2.1950    3.7660 hc        1 MOL      0.087286
     71 H31         5.6610   -3.7590    2.8890 hc        1 MOL      0.087286
     72 N7          6.5130   -2.8830   -0.4470 n         1 MOL     -0.160168
     73 C23         6.5570   -3.5040   -1.7110 c3        1 MOL     -0.183112
     74 C24         5.2320   -4.1930   -2.1080 c         1 MOL      0.533792
     75 O13         5.3100   -5.0930   -2.8880 o         1 MOL     -0.563545
     76 H32         6.1180   -1.9630   -0.4100 hn        1 MOL      0.189503
     77 H33         7.3510   -4.2480   -1.6350 h1        1 MOL      0.099128
     78 H34         6.8510   -2.8180   -2.5000 h1        1 MOL      0.099128
     79 N8          4.1750   -3.7920   -1.4780 n         1 MOL     -0.140490
     80 C25         2.7920   -4.2490   -1.6230 c3        1 MOL     -0.385073
     81 C26         1.7840   -3.0730   -1.5670 c         1 MOL      0.866828
     82 O14         2.0370   -2.0770   -0.9240 o         1 MOL     -0.653420
     83 C27         2.4520   -5.3350   -0.5970 c3        1 MOL      0.528474
     84 C28         3.2690   -6.6350   -0.8280 c3        1 MOL     -0.576040
     85 O15         2.6640   -4.7860    0.6780 oh        1 MOL     -0.675550
     86 H35         4.2050   -2.9500   -0.9130 hn        1 MOL      0.160913
     87 H36         2.7010   -4.6360   -2.6380 h1        1 MOL      0.094977
     88 H37         1.4230   -5.6190   -0.7950 h1        1 MOL      0.002749
     89 H38         3.4930   -4.3100    0.7260 ho        1 MOL      0.467438
     90 H39         4.3020   -6.4510   -0.5380 hc        1 MOL      0.153105
     91 H40         2.8080   -7.4520   -0.2740 hc        1 MOL      0.153105
     92 H41         3.3800   -6.8740   -1.8910 hc        1 MOL      0.153105
     93 N9          0.6520   -3.2620   -2.2340 n         1 MOL     -0.752256
     94 C29        -0.5810   -2.3960   -2.2780 c3        1 MOL      0.223884
     95 C30        -1.7240   -3.1740   -1.5090 c         1 MOL      0.430285
     96 O16        -2.1020   -4.2860   -1.9120 o         1 MOL     -0.541103
     97 C31        -0.9540   -2.0110   -3.7290 c3        1 MOL      0.035501
     98 C32        -0.1710   -0.7230   -4.1850 c3        1 MOL     -0.017841
     99 C33        -2.4390   -1.8670   -3.9780 c3        1 MOL     -0.214024
    100 C34        -0.1860   -0.5910   -5.7310 c3        1 MOL     -0.246880
    101 H42         0.7050   -4.0890   -2.8230 hn        1 MOL      0.336627
    102 H43        -0.3890   -1.4360   -1.7930 h1        1 MOL      0.051736
    103 H44        -0.6120   -2.8650   -4.3240 hc        1 MOL      0.034936
    104 H45         0.8440   -0.7960   -3.8100 hc        1 MOL      0.048603
    105 H46        -0.5110    0.1230   -3.5950 hc        1 MOL      0.048603
    106 H47        -2.8140   -1.0680   -3.3460 hc        1 MOL      0.041805
    107 H48        -2.6720   -1.5970   -5.0080 hc        1 MOL      0.041805
    108 H49        -2.9880   -2.8140   -3.8870 hc        1 MOL      0.041805
    109 H50        -1.1770   -0.2630   -6.0390 hc        1 MOL      0.065933
    110 H51         0.5250    0.1100   -6.1590 hc        1 MOL      0.065933
    111 H52        -0.0160   -1.5780   -6.1660 hc        1 MOL      0.065933
    112 N10        -2.3790   -2.4850   -0.5440 n         1 MOL     -0.136374
    113 C35        -3.5830   -2.9790    0.2390 c3        1 MOL     -0.099522
    114 C36        -4.8930   -2.5490   -0.4380 c         1 MOL      0.505647
    115 O17        -4.9070   -1.8250   -1.4150 o         1 MOL     -0.393731
    116 C37        -3.6180   -2.4270    1.6900 c3        1 MOL     -0.033462
    117 C38        -2.2620   -2.8080    2.3460 c3        1 MOL     -0.233920
    118 O18        -3.6860   -0.9840    1.4250 oh        1 MOL     -0.239054
    119 H53        -1.9070   -1.6470   -0.2360 hn        1 MOL      0.221343
    120 H54        -3.5770   -4.0600    0.3390 h1        1 MOL      0.095038
    121 H55        -4.4710   -2.7650    2.2810 h1        1 MOL      0.068566
    122 H56        -3.5510   -0.4820    2.2220 ho        1 MOL      0.328134
    123 H57        -1.3990   -2.2930    1.9070 hc        1 MOL      0.081441
    124 H58        -2.3570   -2.7150    3.4200 hc        1 MOL      0.081441
    125 H59        -2.0330   -3.8670    2.2340 hc        1 MOL      0.081441
    126 N11        -6.0140   -2.9110    0.2020 n         1 MOL     -0.467133
    127 C39        -7.3830   -2.5320   -0.1470 c3        1 MOL     -0.023815
    128 C40        -7.4930   -1.0380   -0.2740 c         1 MOL      0.376982
    129 O19        -8.0840   -0.5970   -1.2310 o         1 MOL     -0.485165
    130 C41        -8.4480   -3.0060    0.8390 c3        1 MOL      0.202833
    131 C42        -8.8200   -4.5310    0.5560 c3        1 MOL     -0.263889
    132 O20        -8.1200   -2.8880    2.2010 oh        1 MOL     -0.596906
    133 H60        -5.9300   -3.5320    0.9950 hn        1 MOL      0.324022
    134 H61        -7.7270   -2.9360   -1.1010 h1        1 MOL      0.142193
    135 H62        -9.3600   -2.4430    0.6420 h1        1 MOL      0.046698
    136 H63        -8.9250   -2.7050    2.7020 ho        1 MOL      0.389713
    137 H64        -9.3890   -4.9950    1.3530 hc        1 MOL      0.080782
    138 H65        -9.3380   -4.5910   -0.4040 hc        1 MOL      0.080782
    139 H66        -7.9510   -5.1880    0.4790 hc        1 MOL      0.080782
    140 N12        -6.8060   -0.2520    0.5710 n         1 MOL     -0.225037
    141 C43        -7.0010    1.1080    0.6530 c3        1 MOL     -0.050985
    142 C44        -6.1020    1.8320   -0.3370 c         1 MOL      0.224050
    143 O21        -6.3650    2.8140   -1.0040 o         1 MOL     -0.468826
    144 C45        -6.7380    1.6790    2.0420 c3        1 MOL      0.028459
    145 C46        -7.6600    1.1030    3.1170 c3        1 MOL     -0.186804
    146 C47        -7.3260    1.8140    4.4450 c3        1 MOL      0.026900
    147 C48        -8.3940    1.4650    5.4830 c3        1 MOL     -0.007071
    148 N13        -9.6560    2.2230    5.3830 n4        1 MOL     -0.345780
    149 H67        -6.3000   -0.6890    1.3310 hn        1 MOL      0.197777
    150 H68        -8.0340    1.3350    0.3960 h1        1 MOL      0.114488
    151 H69        -6.8490    2.7630    2.0070 hc        1 MOL      0.054180
    152 H70        -5.7100    1.4470    2.3480 hc        1 MOL      0.054180
    153 H71        -7.3160    0.0820    3.2910 hc        1 MOL      0.052552
    154 H72        -8.6840    1.3290    2.8230 hc        1 MOL      0.052552
    155 H73        -7.0980    2.8630    4.2350 hc        1 MOL      0.046077
    156 H74        -6.3410    1.5140    4.7850 hc        1 MOL      0.046077
    157 H75        -8.0110    1.5360    6.4980 hx        1 MOL      0.091569
    158 H76        -8.7290    0.4360    5.3730 hx        1 MOL      0.091569
    159 H77       -10.3310    1.8050    6.0020 hn        1 MOL      0.299241
    160 H78        -9.5970    3.1830    5.6950 hn        1 MOL      0.299241
    161 H79        -9.9120    2.2390    4.4090 hn        1 MOL      0.299241
    162 N14        -4.8730    1.3820   -0.3960 n         1 MOL     -0.040773
    163 C49        -3.9540    1.7190   -1.5140 c3        1 MOL     -0.041224
    164 C50        -4.5330    1.4460   -2.9030 c         1 MOL      0.404036
    165 O22        -4.4370    2.3150   -3.8050 o         1 MOL     -0.558751
    166 C51        -2.6240    1.0290   -1.2690 c3        1 MOL      0.133810
    167 C52        -2.0840    1.5450    0.1140 c3        1 MOL     -0.035071
    168 C53        -0.7130    0.8520    0.4090 c         1 MOL      0.651957
    169 O23        -0.5730   -0.3830    0.3060 o         1 MOL     -0.696310
    170 O24         0.2490    1.5180    0.8810 o         1 MOL     -0.696310
    171 H80        -4.5140    0.6420    0.1900 hn        1 MOL     -0.057685
    172 H81        -3.6700    2.7730   -1.5790 h1        1 MOL      0.067713
    173 H82        -1.9010    1.1470   -2.0860 hc        1 MOL      0.009537
    174 H83        -2.7990   -0.0320   -1.1740 hc        1 MOL      0.009537
    175 H84        -2.7600    1.2910    0.9250 hc        1 MOL     -0.021633
    176 H85        -2.1100    2.6360    0.0920 hc        1 MOL     -0.021633
    177 N15        -5.2730    0.3600   -3.0680 n         1 MOL      0.111853
    178 C54        -5.9160    0.1330   -4.3210 c3        1 MOL     -0.495121
    179 H86        -6.7420    0.8350   -4.4390 h1        1 MOL      0.144387
    180 H87        -5.1990    0.2780   -5.1300 h1        1 MOL      0.144387
    181 H88        -6.3000   -0.8860   -4.3530 h1        1 MOL      0.144387
    182 H89        -5.3930   -0.3430   -2.3430 hn        1 MOL      0.136549
    183 Ca1         1.9260   -0.6930    1.3410 Ca        1 MOL      1.756196
    184 O25         0.1110   -0.5050    3.5620 oh        1 MOL     -0.851179
    185 H90         0.5800    0.2120    3.9960 ho        1 MOL      0.398548
    186 H91        -0.2570   -1.0200    4.2850 ho        1 MOL      0.398548
    187 O26         0.8430   -3.1140    2.0130 oh        1 MOL     -0.851179
    188 H92         1.4550   -3.7620    1.6590 ho        1 MOL      0.398548
    189 H93         0.5630   -3.4890    2.8500 ho        1 MOL      0.398548
@<TRIPOS>BOND
     1    1    2 1   
     2    1    4 1   
     3    1    5 1   
     4    1    6 1   
     5    2    3 2   
     6    2    7 1   
     7    7    8 1   
     8    7   15 1   
     9    8    9 1   
    10    8   11 1   
    11    8   16 1   
    12    9   10 2   
    13    9   19 1   
    14   11   12 1   
    15   11   17 1   
    16   11   18 1   
    17   12   13 1   
    18   12   14 1   
    19   19   20 1   
    20   19   28 1   
    21   20   21 1   
    22   20   23 1   
    23   20   29 1   
    24   21   22 2   
    25   21   41 1   
    26   23   24 1   
    27   23   30 1   
    28   23   31 1   
    29   24   25 1   
    30   24   32 1   
    31   24   33 1   
    32   25   26 1   
    33   25   34 1   
    34   25   35 1   
    35   26   27 1   
    36   26   36 1   
    37   26   37 1   
    38   27   38 1   
    39   27   39 1   
    40   27   40 1   
    41   41   42 1   
    42   41   49 1   
    43   42   43 1   
    44   42   45 1   
    45   42   50 1   
    46   43   44 2   
    47   43   53 1   
    48   45   46 1   
    49   45   51 1   
    50   45   52 1   
    51   46   47 1   
    52   46   48 1   
    53   53   54 1   
    54   53   57 1   
    55   54   55 1   
    56   54   58 1   
    57   54   59 1   
    58   55   56 2   
    59   55   60 1   
    60   60   61 1   
    61   60   68 1   
    62   61   62 1   
    63   61   64 1   
    64   61   69 1   
    65   62   63 2   
    66   62   72 1   
    67   64   65 1   
    68   64   70 1   
    69   64   71 1   
    70   65   66 1   
    71   65   67 1   
    72   72   73 1   
    73   72   76 1   
    74   73   74 1   
    75   73   77 1   
    76   73   78 1   
    77   74   75 2   
    78   74   79 1   
    79   79   80 1   
    80   79   86 1   
    81   80   81 1   
    82   80   83 1   
    83   80   87 1   
    84   81   82 2   
    85   81   93 1   
    86   83   84 1   
    87   83   85 1   
    88   83   88 1   
    89   84   90 1   
    90   84   91 1   
    91   84   92 1   
    92   85   89 1   
    93   93   94 1   
    94   93  101 1   
    95   94   95 1   
    96   94   97 1   
    97   94  102 1   
    98   95   96 2   
    99   95  112 1   
   100   97   98 1   
   101   97   99 1   
   102   97  103 1   
   103   98  100 1   
   104   98  104 1   
   105   98  105 1   
   106   99  106 1   
   107   99  107 1   
   108   99  108 1   
   109  100  109 1   
   110  100  110 1   
   111  100  111 1   
   112  112  113 1   
   113  112  119 1   
   114  113  114 1   
   115  113  116 1   
   116  113  120 1   
   117  114  115 2   
   118  114  126 1   
   119  116  117 1   
   120  116  118 1   
   121  116  121 1   
   122  117  123 1   
   123  117  124 1   
   124  117  125 1   
   125  118  122 1   
   126  126  127 1   
   127  126  133 1   
   128  127  128 1   
   129  127  130 1   
   130  127  134 1   
   131  128  129 2   
   132  128  140 1   
   133  130  131 1   
   134  130  132 1   
   135  130  135 1   
   136  131  137 1   
   137  131  138 1   
   138  131  139 1   
   139  132  136 1   
   140  140  141 1   
   141  140  149 1   
   142  141  142 1   
   143  141  144 1   
   144  141  150 1   
   145  142  143 2   
   146  142  162 1   
   147  144  145 1   
   148  144  151 1   
   149  144  152 1   
   150  145  146 1   
   151  145  153 1   
   152  145  154 1   
   153  146  147 1   
   154  146  155 1   
   155  146  156 1   
   156  147  148 1   
   157  147  157 1   
   158  147  158 1   
   159  148  159 1   
   160  148  160 1   
   161  148  161 1   
   162  162  163 1   
   163  162  171 1   
   164  163  164 1   
   165  163  166 1   
   166  163  172 1   
   167  164  165 2   
   168  164  177 1   
   169  166  167 1   
   170  166  173 1   
   171  166  174 1   
   172  167  168 1   
   173  167  175 1   
   174  167  176 1   
   175  168  169 1   
   176  168  170 1   
   177  177  178 1   
   178  177  182 1   
   179  178  179 1   
   180  178  180 1   
   181  178  181 1   
   182  184  185 1   
   183  184  186 1   
   184  187  188 1   
   185  187  189 1   
@<TRIPOS>SUBSTRUCTURE
     1 MOL         1 TEMP              0 ****  ****    0 ROOT
