@<TRIPOS>MOLECULE
MOL
  179   176     1     0     0
SMALL
resp


@<TRIPOS>ATOM
      1 C1         -0.0400    4.4260    4.8230 c3        1 MOL     -0.377326
      2 C2         -0.5770    3.9480    3.4310 c         1 MOL      0.659892
      3 O1         -0.0050    4.3560    2.4050 o         1 MOL     -0.592604
      4 H1          0.2280    3.5570    5.4260 hc        1 MOL      0.094422
      5 H2          0.8400    5.0520    4.6790 hc        1 MOL      0.094422
      6 H3         -0.8140    4.9980    5.3350 hc        1 MOL      0.094422
      7 N1         -1.6870    3.2430    3.4560 n         1 MOL     -0.615976
      8 C3         -2.3560    2.6850    2.2030 c3        1 MOL      0.470007
      9 C4         -3.1580    3.8530    1.4110 c         1 MOL      0.173757
     10 O2         -4.3250    4.0360    1.5410 o         1 MOL     -0.426702
     11 C5         -3.3630    1.6050    2.5320 c3        1 MOL     -0.273072
     12 C6         -3.5520    0.6860    1.3240 c         1 MOL      0.876478
     13 O3         -3.0280    0.9660    0.1700 o         1 MOL     -0.721525
     14 O4         -4.4690   -0.1360    1.3230 o         1 MOL     -0.721525
     15 H4         -2.0720    3.0480    4.3600 hn        1 MOL      0.325097
     16 H5         -1.5910    2.1920    1.6120 h1        1 MOL     -0.058871
     17 H6         -4.3030    2.0470    2.8600 hc        1 MOL      0.053538
     18 H7         -2.8780    1.0140    3.3090 hc        1 MOL      0.053538
     19 N2         -2.4330    4.6210    0.5880 n         1 MOL     -0.206067
     20 C7         -3.0090    5.7880   -0.1710 c3        1 MOL      0.205132
     21 C8         -3.9260    5.3320   -1.2420 c         1 MOL      0.328388
     22 O5         -4.9360    5.9560   -1.5530 o         1 MOL     -0.512742
     23 C9         -1.9300    6.7390   -0.6600 c3        1 MOL     -0.111025
     24 C10        -0.7910    7.0590    0.3300 c3        1 MOL     -0.003640
     25 C11        -1.0580    7.7950    1.6420 c3        1 MOL     -0.207063
     26 C12         0.1740    8.0840    2.5210 c3        1 MOL      0.215462
     27 N3         -0.3270    8.7830    3.6960 n4        1 MOL     -0.462610
     28 H8         -1.4350    4.5380    0.7320 hn        1 MOL      0.273942
     29 H9         -3.7280    6.3280    0.4400 h1        1 MOL      0.019421
     30 H10        -2.4260    7.6910   -0.8550 hc        1 MOL      0.044383
     31 H11        -1.4950    6.4190   -1.6080 hc        1 MOL      0.044383
     32 H12         0.0890    7.5160   -0.1140 hc        1 MOL      0.041786
     33 H13        -0.4350    6.0490    0.5270 hc        1 MOL      0.041786
     34 H14        -1.7620    7.2120    2.2290 hc        1 MOL      0.062229
     35 H15        -1.4590    8.7620    1.3460 hc        1 MOL      0.062229
     36 H16         0.9200    8.7030    2.0220 hx        1 MOL      0.047793
     37 H17         0.6540    7.1680    2.8790 hx        1 MOL      0.047793
     38 H18        -0.8520    9.6050    3.4230 hn        1 MOL      0.346677
     39 H19        -0.8700    8.1380    4.2590 hn        1 MOL      0.346677
     40 H20         0.4960    9.1030    4.1680 hn        1 MOL      0.346677
     41 N4         -3.5480    4.1800   -1.8680 n         1 MOL     -0.115121
     42 C13        -4.4200    3.6200   -2.9540 c3        1 MOL     -0.072638
     43 C14        -5.5910    2.7770   -2.4170 c         1 MOL      0.440057
     44 O6         -6.6100    2.6680   -3.1070 o         1 MOL     -0.537838
     45 C15        -3.5690    2.7740   -3.9360 c3        1 MOL     -0.152542
     46 C16        -2.7180    1.8650   -3.1920 c         1 MOL      0.612520
     47 O7         -3.1110    0.6590   -3.1040 o         1 MOL     -0.667400
     48 O8         -1.7120    2.2790   -2.5330 o         1 MOL     -0.667400
     49 H21        -2.7110    3.7100   -1.5450 hn        1 MOL      0.068582
     50 H22        -4.9080    4.3940   -3.5530 h1        1 MOL      0.107635
     51 H23        -2.9420    3.3980   -4.5810 hc        1 MOL      0.064746
     52 H24        -4.2650    2.2240   -4.5610 hc        1 MOL      0.064746
     53 N5         -5.4770    2.1200   -1.2660 n         1 MOL      0.068883
     54 C17        -6.6190    1.5110   -0.6130 c3        1 MOL     -0.356030
     55 C18        -6.8850    0.0440   -0.9560 c         1 MOL      0.540733
     56 O9         -8.0730   -0.3730   -0.9280 o         1 MOL     -0.557552
     57 H25        -4.6200    2.0750   -0.7400 hn        1 MOL      0.024994
     58 H26        -7.5050    2.0600   -0.9220 h1        1 MOL      0.152465
     59 H27        -6.5330    1.5750    0.4740 h1        1 MOL      0.152465
     60 N6         -5.8310   -0.7160   -1.4070 n         1 MOL     -0.164719
     61 C19        -5.9490   -2.0690   -1.7750 c3        1 MOL     -0.056720
     62 C20        -5.8730   -3.0420   -0.5830 c         1 MOL      0.298330
     63 O10        -6.2670   -4.1810   -0.8260 o         1 MOL     -0.511832
     64 C21        -4.9240   -2.4130   -2.8480 c3        1 MOL     -0.096540
     65 C22        -3.4660   -2.5760   -2.3710 c         1 MOL      0.684148
     66 N7         -2.7730   -3.4720   -2.9750 n         1 MOL     -0.684216
     67 O11        -3.0050   -1.9450   -1.4550 o         1 MOL     -0.471326
     68 H28        -4.9330   -0.2620   -1.3650 hn        1 MOL      0.037547
     69 H29        -6.9050   -2.1800   -2.2910 h1        1 MOL      0.130824
     70 H30        -4.8550   -1.6360   -3.6100 hc        1 MOL      0.041813
     71 H31        -5.2810   -3.3320   -3.2940 hc        1 MOL      0.041813
     72 H32        -3.1890   -4.0160   -3.7160 hn        1 MOL      0.314027
     73 H33        -1.8170   -3.5890   -2.6650 hn        1 MOL      0.314027
     74 N8         -5.5240   -2.6210    0.5710 n         1 MOL     -0.098975
     75 C23        -5.4220   -3.4780    1.7370 c3        1 MOL     -0.315702
     76 C24        -4.0240   -3.6800    2.2710 c         1 MOL      0.503566
     77 O12        -3.8550   -4.4860    3.1820 o         1 MOL     -0.547956
     78 H34        -5.1690   -1.6810    0.6760 hn        1 MOL      0.278859
     79 H35        -5.7280   -4.5040    1.5430 h1        1 MOL      0.171015
     80 H36        -6.0980   -3.0300    2.4660 h1        1 MOL      0.171015
     81 N9         -2.9640   -3.1470    1.6550 n         1 MOL     -0.185432
     82 C25        -1.5450   -3.5010    1.8880 c3        1 MOL     -0.082039
     83 C26        -0.5420   -2.2600    1.6920 c         1 MOL      0.624589
     84 O13        -0.7630   -1.2440    1.0200 o         1 MOL     -0.594606
     85 C27        -1.1470   -4.5860    0.8190 c3        1 MOL      0.070419
     86 C28        -2.0570   -5.8070    0.9730 ca        1 MOL      0.004399
     87 C29        -3.2670   -6.0080    0.2650 ca        1 MOL     -0.217466
     88 C30        -1.7980   -6.7550    1.9590 ca        1 MOL     -0.217466
     89 C31        -4.0820   -7.0830    0.4610 ca        1 MOL     -0.188497
     90 C32        -2.6850   -7.7770    2.3170 ca        1 MOL     -0.188497
     91 C33        -3.8440   -7.9640    1.5000 ca        1 MOL      0.321888
     92 O14        -4.6830   -9.0190    1.7040 oh        1 MOL     -0.468139
     93 H37        -3.1630   -2.3650    1.0600 hn        1 MOL      0.044718
     94 H38        -1.3820   -3.9270    2.8700 h1        1 MOL      0.110596
     95 H39        -0.1960   -4.9620    1.2010 hc        1 MOL      0.006095
     96 H40        -1.1620   -4.2700   -0.2210 hc        1 MOL      0.006095
     97 H41        -3.5250   -5.3420   -0.5440 ha        1 MOL      0.139657
     98 H42        -0.8880   -6.5930    2.5180 ha        1 MOL      0.139657
     99 H43        -5.0320   -7.1710   -0.0380 ha        1 MOL      0.129550
    100 H44        -2.4460   -8.4950    3.0870 ha        1 MOL      0.129550
    101 H45        -4.3920   -9.4170    2.5250 ho        1 MOL      0.343384
    102 N10         0.6780   -2.4570    2.1540 n         1 MOL     -0.592450
    103 C34         1.9250   -1.8190    1.5730 c3        1 MOL      0.053380
    104 C35         3.0010   -2.8190    1.1240 c         1 MOL      0.486761
    105 O15         3.0580   -3.9220    1.6530 o         1 MOL     -0.546390
    106 C36         2.5200   -0.6720    2.4950 c3        1 MOL      0.067629
    107 C37         3.0940   -1.2400    3.7860 c3        1 MOL     -0.090658
    108 C38         1.4830    0.3970    2.8240 c3        1 MOL     -0.097486
    109 C39         3.8320   -0.2510    4.6860 c3        1 MOL     -0.140309
    110 H46         0.7710   -3.2700    2.7580 hn        1 MOL      0.329101
    111 H47         1.6000   -1.2890    0.6730 h1        1 MOL      0.132797
    112 H48         3.2590   -0.0770    1.9630 hc        1 MOL     -0.035193
    113 H49         3.8420   -1.9400    3.4360 hc        1 MOL      0.053463
    114 H50         2.4190   -1.8360    4.3940 hc        1 MOL      0.053463
    115 H51         1.3400    1.0830    1.9770 hc        1 MOL      0.045621
    116 H52         0.5340    0.0290    3.2090 hc        1 MOL      0.045621
    117 H53         1.8490    0.9810    3.6620 hc        1 MOL      0.045621
    118 H54         3.2010    0.2960    5.3870 hc        1 MOL      0.038759
    119 H55         4.5560   -0.7680    5.3150 hc        1 MOL      0.038759
    120 H56         4.2980    0.4790    4.0420 hc        1 MOL      0.038759
    121 N11         3.8890   -2.3670    0.2560 n         1 MOL     -0.246737
    122 C40         5.0830   -3.0590   -0.2990 c3        1 MOL      0.158968
    123 C41         6.3970   -2.3560    0.1560 c         1 MOL      0.350630
    124 O16         6.4050   -1.1870    0.5480 o         1 MOL     -0.378526
    125 C42         4.9200   -3.1200   -1.8150 c3        1 MOL     -0.192685
    126 O17         4.7100   -1.8160   -2.3510 oh        1 MOL     -0.371909
    127 H57         3.7210   -1.4070    0.0040 hn        1 MOL      0.066140
    128 H58         5.1330   -4.0640    0.1080 h1        1 MOL      0.064430
    129 H59         4.0070   -3.6190   -2.1210 h1        1 MOL      0.094488
    130 H60         5.8560   -3.5010   -2.2300 h1        1 MOL      0.094488
    131 H61         4.3670   -1.8790   -3.2430 ho        1 MOL      0.369037
    132 N12         7.5780   -2.9380   -0.0860 n         1 MOL     -0.298166
    133 C43         8.8670   -2.3450    0.1180 c3        1 MOL      0.038921
    134 C44         9.2300   -1.1410   -0.8650 c         1 MOL      0.456650
    135 O18        10.1090   -0.3610   -0.5250 o         1 MOL     -0.509886
    136 C45         9.9480   -3.3930   -0.0770 c3        1 MOL     -0.400590
    137 H62         7.5270   -3.8680   -0.4650 hn        1 MOL      0.241028
    138 H63         8.9760   -2.0020    1.1470 h1        1 MOL      0.135609
    139 H64        10.9200   -2.9100   -0.1520 hc        1 MOL      0.119654
    140 H65         9.9910   -4.1300    0.7220 hc        1 MOL      0.119654
    141 H66        10.0040   -3.8360   -1.0790 hc        1 MOL      0.119654
    142 N13         8.4920   -0.9080   -1.9420 n         1 MOL     -0.246722
    143 C46         8.4510    0.3350   -2.7520 c3        1 MOL      0.037111
    144 C47         7.5520    1.3880   -2.1040 c         1 MOL      0.463826
    145 O19         8.0900    2.4340   -1.7610 o         1 MOL     -0.480726
    146 C48         7.9580   -0.0060   -4.1730 c3        1 MOL     -0.149414
    147 H67         8.0770   -1.6810   -2.4370 hn        1 MOL      0.208845
    148 H68         9.4590    0.7410   -2.8410 h1        1 MOL      0.090016
    149 H69         7.8290    0.9140   -4.7410 hc        1 MOL      0.041918
    150 H70         8.6460   -0.6790   -4.6980 hc        1 MOL      0.041918
    151 H71         6.9810   -0.4820   -4.1730 hc        1 MOL      0.041918
    152 N14         6.2300    1.0750   -1.8220 n         1 MOL     -0.297850
    153 C49         5.4410    1.9980   -0.9610 c3        1 MOL     -0.098290
    154 C50         6.2080    2.4030    0.3200 c         1 MOL      0.451308
    155 O20         6.1730    3.5820    0.5990 o         1 MOL     -0.556944
    156 C51         4.0670    1.3950   -0.6890 c3        1 MOL      0.094094
    157 C52         2.9950    1.8970   -1.6770 c3        1 MOL     -0.173047
    158 C53         1.6330    1.1420   -1.4560 c         1 MOL      0.842183
    159 O21         1.3760    0.1730   -2.1530 o         1 MOL     -0.833758
    160 O22         0.7560    1.4700   -0.6330 o         1 MOL     -0.833758
    161 H72         5.8660    0.1880   -2.1580 hn        1 MOL      0.146690
    162 H73         5.3390    2.9340   -1.5020 h1        1 MOL      0.095933
    163 H74         3.8020    1.6630    0.3330 hc        1 MOL      0.041758
    164 H75         4.1500    0.3130   -0.7640 hc        1 MOL      0.041758
    165 H76         3.2970    1.8080   -2.7210 hc        1 MOL      0.037560
    166 H77         2.8560    2.9480   -1.4160 hc        1 MOL      0.037560
    167 N15         6.7830    1.5060    1.1050 n         1 MOL      0.033627
    168 C54         7.4420    1.8210    2.3150 c3        1 MOL     -0.208024
    169 H78         7.6870    0.9010    2.8450 h1        1 MOL      0.076545
    170 H79         8.3580    2.3690    2.0990 h1        1 MOL      0.076545
    171 H80         6.7880    2.4340    2.9360 h1        1 MOL      0.076545
    172 H81         6.6890    0.5600    0.7650 hn        1 MOL      0.024077
    173 Ca1        -1.1420   -0.0330   -1.3960 Ca        1 MOL      1.721553
    174 O23        -0.7320   -1.1540   -4.2740 oh        1 MOL     -0.789468
    175 H82         0.1780   -1.4210   -4.4570 ho        1 MOL      0.389435
    176 H83        -1.2220   -1.4530   -5.0350 ho        1 MOL      0.389435
    177 O24         0.1010   -2.6380   -2.0560 oh        1 MOL     -0.789468
    178 H84         0.6240   -3.4300   -1.8760 ho        1 MOL      0.389435
    179 H85         0.3720   -2.3730   -2.9330 ho        1 MOL      0.389435
@<TRIPOS>BOND
     1    1    2 1   
     2    1    4 1   
     3    1    5 1   
     4    1    6 1   
     5    2    3 2   
     6    2    7 1   
     7    7    8 1   
     8    7   15 1   
     9    8    9 1   
    10    8   11 1   
    11    8   16 1   
    12    9   10 2   
    13    9   19 1   
    14   11   12 1   
    15   11   17 1   
    16   11   18 1   
    17   12   13 1   
    18   12   14 1   
    19   19   20 1   
    20   19   28 1   
    21   20   21 1   
    22   20   23 1   
    23   20   29 1   
    24   21   22 2   
    25   21   41 1   
    26   23   24 1   
    27   23   30 1   
    28   23   31 1   
    29   24   25 1   
    30   24   32 1   
    31   24   33 1   
    32   25   26 1   
    33   25   34 1   
    34   25   35 1   
    35   26   27 1   
    36   26   36 1   
    37   26   37 1   
    38   27   38 1   
    39   27   39 1   
    40   27   40 1   
    41   41   42 1   
    42   41   49 1   
    43   42   43 1   
    44   42   45 1   
    45   42   50 1   
    46   43   44 2   
    47   43   53 1   
    48   45   46 1   
    49   45   51 1   
    50   45   52 1   
    51   46   47 1   
    52   46   48 1   
    53   53   54 1   
    54   53   57 1   
    55   54   55 1   
    56   54   58 1   
    57   54   59 1   
    58   55   56 2   
    59   55   60 1   
    60   60   61 1   
    61   60   68 1   
    62   61   62 1   
    63   61   64 1   
    64   61   69 1   
    65   62   63 2   
    66   62   74 1   
    67   64   65 1   
    68   64   70 1   
    69   64   71 1   
    70   65   66 1   
    71   65   67 2   
    72   66   72 1   
    73   66   73 1   
    74   74   75 1   
    75   74   78 1   
    76   75   76 1   
    77   75   79 1   
    78   75   80 1   
    79   76   77 2   
    80   76   81 1   
    81   81   82 1   
    82   81   93 1   
    83   82   83 1   
    84   82   85 1   
    85   82   94 1   
    86   83   84 2   
    87   83  102 1   
    88   85   86 1   
    89   85   95 1   
    90   85   96 1   
    91   86   87 ar  
    92   86   88 ar  
    93   87   89 ar  
    94   87   97 1   
    95   88   90 ar  
    96   88   98 1   
    97   89   91 ar  
    98   89   99 1   
    99   90   91 ar  
   100   90  100 1   
   101   91   92 1   
   102   92  101 1   
   103  102  103 1   
   104  102  110 1   
   105  103  104 1   
   106  103  106 1   
   107  103  111 1   
   108  104  105 2   
   109  104  121 1   
   110  106  107 1   
   111  106  108 1   
   112  106  112 1   
   113  107  109 1   
   114  107  113 1   
   115  107  114 1   
   116  108  115 1   
   117  108  116 1   
   118  108  117 1   
   119  109  118 1   
   120  109  119 1   
   121  109  120 1   
   122  121  122 1   
   123  121  127 1   
   124  122  123 1   
   125  122  125 1   
   126  122  128 1   
   127  123  124 2   
   128  123  132 1   
   129  125  126 1   
   130  125  129 1   
   131  125  130 1   
   132  126  131 1   
   133  132  133 1   
   134  132  137 1   
   135  133  134 1   
   136  133  136 1   
   137  133  138 1   
   138  134  135 2   
   139  134  142 1   
   140  136  139 1   
   141  136  140 1   
   142  136  141 1   
   143  142  143 1   
   144  142  147 1   
   145  143  144 1   
   146  143  146 1   
   147  143  148 1   
   148  144  145 2   
   149  144  152 1   
   150  146  149 1   
   151  146  150 1   
   152  146  151 1   
   153  152  153 1   
   154  152  161 1   
   155  153  154 1   
   156  153  156 1   
   157  153  162 1   
   158  154  155 2   
   159  154  167 1   
   160  156  157 1   
   161  156  163 1   
   162  156  164 1   
   163  157  158 1   
   164  157  165 1   
   165  157  166 1   
   166  158  159 1   
   167  158  160 1   
   168  167  168 1   
   169  167  172 1   
   170  168  169 1   
   171  168  170 1   
   172  168  171 1   
   173  174  175 1   
   174  174  176 1   
   175  177  178 1   
   176  177  179 1   
@<TRIPOS>SUBSTRUCTURE
     1 MOL         1 TEMP              0 ****  ****    0 ROOT
