@<TRIPOS>MOLECULE
MOL
  179   176     1     0     0
SMALL
resp


@<TRIPOS>ATOM
      1 C1          2.6140    2.4130    5.1930 c3        1 MOL     -0.270938
      2 C2          1.7970    2.2200    3.8580 c         1 MOL      0.549267
      3 O1          2.3880    2.0430    2.8340 o         1 MOL     -0.498978
      4 H1          2.9720    3.4410    5.2540 hc        1 MOL      0.075801
      5 H2          1.9720    2.2020    6.0470 hc        1 MOL      0.075801
      6 H3          3.4650    1.7320    5.2010 hc        1 MOL      0.075801
      7 N1          0.4570    2.3910    3.8590 n         1 MOL     -0.423931
      8 C3         -0.3060    2.3620    2.6110 c3        1 MOL      0.025883
      9 C4         -0.2260    3.6580    1.8100 c         1 MOL      0.410071
     10 O2         -0.9140    4.6860    2.0470 o         1 MOL     -0.538355
     11 C5         -1.7060    1.9130    2.9740 c3        1 MOL     -0.232482
     12 C6         -2.6150    1.7360    1.7680 c         1 MOL      0.823422
     13 O3         -3.8270    1.7580    1.9650 o         1 MOL     -0.729538
     14 O4         -2.0250    1.3730    0.7140 o         1 MOL     -0.729538
     15 H4         -0.0830    2.5150    4.7150 hn        1 MOL      0.299319
     16 H5          0.1760    1.6070    1.9820 h1        1 MOL     -0.052508
     17 H6         -2.1740    2.6980    3.5670 hc        1 MOL      0.064764
     18 H7         -1.7640    1.0170    3.6040 hc        1 MOL      0.064764
     19 N2          0.6810    3.7230    0.8530 n         1 MOL     -0.053664
     20 C7          1.0580    4.9810    0.1880 c3        1 MOL     -0.015023
     21 C8         -0.0780    5.7280   -0.5540 c         1 MOL      0.406575
     22 O5          0.0020    6.9570   -0.7280 o         1 MOL     -0.532119
     23 C9          2.2950    4.7800   -0.7220 c3        1 MOL     -0.118373
     24 C10         3.5430    4.1720    0.0690 c3        1 MOL     -0.136164
     25 C11         4.2690    5.2390    0.8660 c3        1 MOL     -0.042120
     26 C12         4.7250    6.4710    0.0530 c3        1 MOL      0.059758
     27 N3          4.9710    7.6770    0.8720 n4        1 MOL     -0.517211
     28 H8          1.1880    2.8930    0.5750 hn        1 MOL      0.220786
     29 H9          1.3840    5.5730    1.0490 h1        1 MOL      0.039637
     30 H10         2.5880    5.6900   -1.2560 hc        1 MOL      0.062923
     31 H11         2.1040    4.0240   -1.4860 hc        1 MOL      0.062923
     32 H12         4.2700    3.8100   -0.6590 hc        1 MOL      0.097789
     33 H13         3.2250    3.3570    0.7240 hc        1 MOL      0.097789
     34 H14         5.1830    4.8930    1.3380 hc        1 MOL      0.051234
     35 H15         3.6210    5.4160    1.7290 hc        1 MOL      0.051234
     36 H16         3.9380    6.7770   -0.6340 hx        1 MOL      0.082081
     37 H17         5.6230    6.1360   -0.4660 hx        1 MOL      0.082081
     38 H18         4.1300    7.9680    1.3640 hn        1 MOL      0.373312
     39 H19         5.7630    7.4700    1.4600 hn        1 MOL      0.373312
     40 H20         5.1880    8.4440    0.2500 hn        1 MOL      0.373312
     41 N4         -1.1140    4.9600   -1.0720 n         1 MOL     -0.259341
     42 C13        -2.1710    5.4300   -2.0230 c3        1 MOL      0.061267
     43 C14        -3.6110    5.1540   -1.3850 c         1 MOL      0.369620
     44 O6         -4.5960    5.4700   -2.0830 o         1 MOL     -0.519296
     45 C15        -1.9150    4.7280   -3.3550 c3        1 MOL     -0.126307
     46 C16        -1.7900    3.1750   -3.3860 c         1 MOL      0.771789
     47 O7         -1.9100    2.4700   -2.3520 o         1 MOL     -0.733791
     48 O8         -1.3700    2.6160   -4.4590 o         1 MOL     -0.733791
     49 H21        -1.1410    3.9620   -0.9100 hn        1 MOL      0.128361
     50 H22        -2.0410    6.5140   -2.0950 h1        1 MOL      0.092816
     51 H23        -1.0340    5.2540   -3.7450 hc        1 MOL      0.038495
     52 H24        -2.6500    4.9790   -4.1240 hc        1 MOL      0.038495
     53 N5         -3.6670    4.6170   -0.1870 n         1 MOL     -0.169193
     54 C17        -4.9540    4.4490    0.4950 c3        1 MOL     -0.207001
     55 C18        -5.8510    3.3620   -0.1000 c         1 MOL      0.504673
     56 O9         -7.0650    3.4500    0.0850 o         1 MOL     -0.562886
     57 H25        -2.8240    4.4520    0.3450 hn        1 MOL      0.192594
     58 H26        -5.5330    5.3680    0.4310 h1        1 MOL      0.120916
     59 H27        -4.7050    4.2860    1.5410 h1        1 MOL      0.120916
     60 N6         -5.2640    2.2960   -0.6960 n         1 MOL     -0.046091
     61 C19        -6.1140    1.2590   -1.2250 c3        1 MOL     -0.263795
     62 C20        -6.4590    0.1090   -0.2290 c         1 MOL      0.340680
     63 O10        -6.9200   -0.9020   -0.6440 o         1 MOL     -0.394473
     64 C21        -5.4470    0.7500   -2.5560 c3        1 MOL     -0.032294
     65 C22        -4.6570   -0.5190   -2.4610 c         1 MOL      0.420704
     66 N7         -5.0560   -1.5400   -3.0890 n         1 MOL     -0.585089
     67 O11        -3.6750   -0.6250   -1.6940 o         1 MOL     -0.539463
     68 H28        -4.2680    2.2600   -0.8040 hn        1 MOL      0.093542
     69 H29        -7.0540    1.7270   -1.5220 h1        1 MOL      0.172250
     70 H30        -4.8450    1.5650   -2.9360 hc        1 MOL      0.063210
     71 H31        -6.1850    0.6460   -3.3510 hc        1 MOL      0.063210
     72 H32        -5.8740   -1.5710   -3.6810 hn        1 MOL      0.336225
     73 H33        -4.4930   -2.3610   -2.9270 hn        1 MOL      0.336225
     74 N8         -6.0800    0.2680    1.0550 n         1 MOL     -0.138774
     75 C23        -6.2920   -0.6670    2.1270 c3        1 MOL     -0.280850
     76 C24        -5.4480   -1.9190    2.1110 c         1 MOL      0.638410
     77 O12        -5.7590   -2.9030    2.7760 o         1 MOL     -0.582422
     78 H34        -5.6030    1.1130    1.3250 hn        1 MOL      0.273538
     79 H35        -7.3530   -0.8390    2.3230 h1        1 MOL      0.121564
     80 H36        -5.9990   -0.0120    2.9500 h1        1 MOL      0.121564
     81 N9         -4.3280   -1.9920    1.4700 n         1 MOL     -0.365678
     82 C25        -3.4950   -3.1640    1.3390 c3        1 MOL      0.157913
     83 C26        -2.0920   -2.7100    1.1490 c         1 MOL      0.418529
     84 O13        -1.8800   -1.8320    0.3120 o         1 MOL     -0.518647
     85 C27        -3.8940   -3.8650    0.0150 c3        1 MOL      0.163005
     86 C28        -5.2470   -4.6070    0.0370 ca        1 MOL     -0.175656
     87 C29        -6.2010   -4.1530   -0.8780 ca        1 MOL     -0.110550
     88 C30        -5.4640   -5.6490    0.9280 ca        1 MOL     -0.110550
     89 C31        -7.4430   -4.8540   -0.9900 ca        1 MOL     -0.197259
     90 C32        -6.7260   -6.2910    0.7920 ca        1 MOL     -0.197259
     91 C33        -7.7340   -5.9500   -0.1830 ca        1 MOL      0.295370
     92 O14        -8.8390   -6.6070   -0.4110 oh        1 MOL     -0.453839
     93 H37        -3.9480   -1.1660    1.0310 hn        1 MOL      0.190597
     94 H38        -3.5140   -3.8460    2.1860 h1        1 MOL      0.034594
     95 H39        -3.1060   -4.5780   -0.2190 hc        1 MOL     -0.014682
     96 H40        -3.9540   -3.1360   -0.7960 hc        1 MOL     -0.014682
     97 H41        -5.9800   -3.3270   -1.5320 ha        1 MOL      0.120134
     98 H42        -4.6560   -5.9900    1.5540 ha        1 MOL      0.120134
     99 H43        -8.1190   -4.5420   -1.7620 ha        1 MOL      0.104023
    100 H44        -6.8730   -7.2070    1.3480 ha        1 MOL      0.104023
    101 H45        -8.9510   -7.3640    0.1760 ho        1 MOL      0.364562
    102 N10        -1.0970   -3.2860    1.7140 n         1 MOL     -0.363301
    103 C34         0.3230   -2.8840    1.6260 c3        1 MOL      0.003336
    104 C35         1.2400   -3.9750    0.9010 c         1 MOL      0.559531
    105 O15         0.9920   -5.1750    0.9200 o         1 MOL     -0.546792
    106 C36         0.9380   -2.5050    2.9680 c3        1 MOL      0.108322
    107 C37         0.1910   -1.3310    3.6100 c3        1 MOL      0.161000
    108 C38         2.3960   -2.2610    3.0940 c3        1 MOL     -0.297117
    109 C39        -0.0480   -1.5650    5.1170 c3        1 MOL     -0.448956
    110 H46        -1.3400   -4.0890    2.2800 hn        1 MOL      0.255790
    111 H47         0.3890   -2.0060    0.9840 h1        1 MOL     -0.051591
    112 H48         0.8720   -3.4140    3.5720 hc        1 MOL      0.023254
    113 H49        -0.8030   -1.2230    3.1620 hc        1 MOL      0.025921
    114 H50         0.6980   -0.3900    3.3900 hc        1 MOL      0.025921
    115 H51         2.9770   -3.1500    2.8560 hc        1 MOL      0.067925
    116 H52         2.6830   -1.4120    2.4790 hc        1 MOL      0.067925
    117 H53         2.6390   -2.0180    4.1300 hc        1 MOL      0.067925
    118 H54        -0.6120   -2.4920    5.2400 hc        1 MOL      0.104231
    119 H55         0.9200   -1.7940    5.5760 hc        1 MOL      0.104231
    120 H56        -0.4500   -0.6140    5.4490 hc        1 MOL      0.104231
    121 N11         2.1990   -3.4060    0.1330 n         1 MOL     -0.246195
    122 C40         3.0950   -4.1540   -0.7050 c3        1 MOL     -0.042920
    123 C41         4.5930   -3.9600   -0.4730 c         1 MOL      0.403127
    124 O16         5.0310   -2.9370    0.0430 o         1 MOL     -0.432041
    125 C42         2.8330   -3.9070   -2.1420 c3        1 MOL      0.145424
    126 O17         2.8560   -2.5460   -2.4440 oh        1 MOL     -0.618556
    127 H57         2.3390   -2.4050    0.2060 hn        1 MOL      0.259154
    128 H58         2.7920   -5.1920   -0.5440 h1        1 MOL      0.037722
    129 H59         1.7870   -4.1710   -2.3060 h1        1 MOL      0.032368
    130 H60         3.4400   -4.5630   -2.7740 h1        1 MOL      0.032368
    131 H61         2.1140   -2.0220   -2.1570 ho        1 MOL      0.368654
    132 N12         5.4310   -4.8790   -0.9550 n         1 MOL     -0.391883
    133 C43         6.8970   -4.8560   -0.6010 c3        1 MOL      0.102574
    134 C44         7.6620   -3.5730   -1.0640 c         1 MOL      0.536346
    135 O18         8.4980   -2.9540   -0.3750 o         1 MOL     -0.530791
    136 C45         7.6280   -6.0490   -1.2160 c3        1 MOL     -0.304001
    137 H62         4.9750   -5.6940   -1.3420 hn        1 MOL      0.289560
    138 H63         7.0740   -4.9230    0.4710 h1        1 MOL      0.086536
    139 H64         7.7130   -5.8540   -2.2810 hc        1 MOL      0.091079
    140 H65         8.6190   -6.0280   -0.7480 hc        1 MOL      0.091079
    141 H66         6.9950   -6.9240   -1.0530 hc        1 MOL      0.091079
    142 N13         7.1520   -2.9810   -2.1430 n         1 MOL     -0.509341
    143 C46         7.4440   -1.6230   -2.6960 c3        1 MOL      0.326632
    144 C47         7.2680   -0.5230   -1.6700 c         1 MOL      0.311187
    145 O19         8.2120    0.1680   -1.2800 o         1 MOL     -0.471351
    146 C48         6.6130   -1.3790   -3.9230 c3        1 MOL     -0.378188
    147 H67         6.4610   -3.5290   -2.6290 hn        1 MOL      0.281382
    148 H68         8.4880   -1.6010   -2.9850 h1        1 MOL      0.031995
    149 H69         5.6340   -1.8110   -3.7150 hc        1 MOL      0.099255
    150 H70         6.5870   -0.3100   -4.1290 hc        1 MOL      0.099255
    151 H71         7.0870   -1.8970   -4.7630 hc        1 MOL      0.099255
    152 N14         5.9980   -0.3830   -1.1350 n         1 MOL     -0.197308
    153 C49         5.6860    0.6100   -0.0690 c3        1 MOL     -0.249883
    154 C50         6.5110    0.4370    1.2110 c         1 MOL      0.525908
    155 O20         6.9380    1.3480    1.9010 o         1 MOL     -0.559100
    156 C51         4.1390    0.5300    0.2320 c3        1 MOL      0.148519
    157 C52         3.3030    0.7150   -1.0640 c3        1 MOL     -0.018939
    158 C53         1.8160    0.4000   -0.9270 c         1 MOL      0.822837
    159 O21         1.0090    1.3410   -0.7200 o         1 MOL     -0.713456
    160 O22         1.3460   -0.7690   -1.1230 o         1 MOL     -0.713456
    161 H72         5.2140   -0.9140   -1.4910 hn        1 MOL      0.279616
    162 H73         5.8900    1.6070   -0.4580 h1        1 MOL      0.109387
    163 H74         3.8660    1.2630    0.9890 hc        1 MOL     -0.054156
    164 H75         4.0210   -0.4860    0.6160 hc        1 MOL     -0.054156
    165 H76         3.7230    0.1140   -1.8820 hc        1 MOL     -0.042360
    166 H77         3.4410    1.7540   -1.3600 hc        1 MOL     -0.042360
    167 N15         6.8010   -0.8400    1.5310 n         1 MOL     -0.062518
    168 C54         7.4150   -1.1490    2.8650 c3        1 MOL     -0.269879
    169 H78         7.7240   -2.1940    2.8880 h1        1 MOL      0.105898
    170 H79         8.2830   -0.5090    3.0240 h1        1 MOL      0.105898
    171 H80         6.6830   -0.9710    3.6530 h1        1 MOL      0.105898
    172 H81         6.4100   -1.5970    0.9900 hn        1 MOL      0.130040
    173 Ca1        -1.1720    0.0610   -1.3150 Ca        1 MOL      1.675864
    174 O23        -1.3380   -2.3440   -2.7190 oh        1 MOL     -0.858123
    175 H82        -0.9690   -2.3500   -3.6010 ho        1 MOL      0.413104
    176 H83        -1.2090   -3.2310   -2.3990 ho        1 MOL      0.413104
    177 O24        -0.0070    0.2320   -3.7570 oh        1 MOL     -0.858123
    178 H84        -0.1680   -0.4450   -4.4150 ho        1 MOL      0.413104
    179 H85        -0.2270    1.0440   -4.1910 ho        1 MOL      0.413104
@<TRIPOS>BOND
     1    1    2 1   
     2    1    4 1   
     3    1    5 1   
     4    1    6 1   
     5    2    3 2   
     6    2    7 1   
     7    7    8 1   
     8    7   15 1   
     9    8    9 1   
    10    8   11 1   
    11    8   16 1   
    12    9   10 2   
    13    9   19 1   
    14   11   12 1   
    15   11   17 1   
    16   11   18 1   
    17   12   13 1   
    18   12   14 1   
    19   19   20 1   
    20   19   28 1   
    21   20   21 1   
    22   20   23 1   
    23   20   29 1   
    24   21   22 2   
    25   21   41 1   
    26   23   24 1   
    27   23   30 1   
    28   23   31 1   
    29   24   25 1   
    30   24   32 1   
    31   24   33 1   
    32   25   26 1   
    33   25   34 1   
    34   25   35 1   
    35   26   27 1   
    36   26   36 1   
    37   26   37 1   
    38   27   38 1   
    39   27   39 1   
    40   27   40 1   
    41   41   42 1   
    42   41   49 1   
    43   42   43 1   
    44   42   45 1   
    45   42   50 1   
    46   43   44 2   
    47   43   53 1   
    48   45   46 1   
    49   45   51 1   
    50   45   52 1   
    51   46   47 1   
    52   46   48 1   
    53   53   54 1   
    54   53   57 1   
    55   54   55 1   
    56   54   58 1   
    57   54   59 1   
    58   55   56 2   
    59   55   60 1   
    60   60   61 1   
    61   60   68 1   
    62   61   62 1   
    63   61   64 1   
    64   61   69 1   
    65   62   63 2   
    66   62   74 1   
    67   64   65 1   
    68   64   70 1   
    69   64   71 1   
    70   65   66 1   
    71   65   67 2   
    72   66   72 1   
    73   66   73 1   
    74   74   75 1   
    75   74   78 1   
    76   75   76 1   
    77   75   79 1   
    78   75   80 1   
    79   76   77 2   
    80   76   81 1   
    81   81   82 1   
    82   81   93 1   
    83   82   83 1   
    84   82   85 1   
    85   82   94 1   
    86   83   84 2   
    87   83  102 1   
    88   85   86 1   
    89   85   95 1   
    90   85   96 1   
    91   86   87 ar  
    92   86   88 ar  
    93   87   89 ar  
    94   87   97 1   
    95   88   90 ar  
    96   88   98 1   
    97   89   91 ar  
    98   89   99 1   
    99   90   91 ar  
   100   90  100 1   
   101   91   92 1   
   102   92  101 1   
   103  102  103 1   
   104  102  110 1   
   105  103  104 1   
   106  103  106 1   
   107  103  111 1   
   108  104  105 2   
   109  104  121 1   
   110  106  107 1   
   111  106  108 1   
   112  106  112 1   
   113  107  109 1   
   114  107  113 1   
   115  107  114 1   
   116  108  115 1   
   117  108  116 1   
   118  108  117 1   
   119  109  118 1   
   120  109  119 1   
   121  109  120 1   
   122  121  122 1   
   123  121  127 1   
   124  122  123 1   
   125  122  125 1   
   126  122  128 1   
   127  123  124 2   
   128  123  132 1   
   129  125  126 1   
   130  125  129 1   
   131  125  130 1   
   132  126  131 1   
   133  132  133 1   
   134  132  137 1   
   135  133  134 1   
   136  133  136 1   
   137  133  138 1   
   138  134  135 2   
   139  134  142 1   
   140  136  139 1   
   141  136  140 1   
   142  136  141 1   
   143  142  143 1   
   144  142  147 1   
   145  143  144 1   
   146  143  146 1   
   147  143  148 1   
   148  144  145 2   
   149  144  152 1   
   150  146  149 1   
   151  146  150 1   
   152  146  151 1   
   153  152  153 1   
   154  152  161 1   
   155  153  154 1   
   156  153  156 1   
   157  153  162 1   
   158  154  155 2   
   159  154  167 1   
   160  156  157 1   
   161  156  163 1   
   162  156  164 1   
   163  157  158 1   
   164  157  165 1   
   165  157  166 1   
   166  158  159 1   
   167  158  160 1   
   168  167  168 1   
   169  167  172 1   
   170  168  169 1   
   171  168  170 1   
   172  168  171 1   
   173  174  175 1   
   174  174  176 1   
   175  177  178 1   
   176  177  179 1   
@<TRIPOS>SUBSTRUCTURE
     1 MOL         1 TEMP              0 ****  ****    0 ROOT
