@<TRIPOS>MOLECULE
MOL
  175   173     1     0     0
SMALL
resp


@<TRIPOS>ATOM
      1 C1          0.3740    3.8840    5.3040 c3        1 MOL     -0.448047
      2 C2         -0.3750    3.9060    3.8980 c         1 MOL      0.688396
      3 O1          0.2790    4.1350    2.8800 o         1 MOL     -0.552031
      4 H1          1.0910    4.7030    5.3450 hc        1 MOL      0.111519
      5 H2         -0.3550    3.9980    6.1070 hc        1 MOL      0.111519
      6 H3          0.8990    2.9360    5.4210 hc        1 MOL      0.111519
      7 N1         -1.6810    3.7880    3.8350 n         1 MOL     -0.598379
      8 C3         -2.3240    3.4790    2.5050 c3        1 MOL      0.192347
      9 C4         -2.5340    4.6560    1.6490 c         1 MOL      0.598314
     10 O2         -3.0280    5.6870    2.0750 o         1 MOL     -0.590632
     11 C5         -3.6000    2.7410    2.8560 c3        1 MOL     -0.551411
     12 C6         -4.3060    2.1930    1.6480 c         1 MOL      0.913123
     13 O3         -3.6840    2.0820    0.6110 o         1 MOL     -0.690766
     14 O4         -5.5080    1.9260    1.7760 o         1 MOL     -0.690766
     15 H4         -2.2560    3.7800    4.6610 hn        1 MOL      0.329872
     16 H5         -1.6540    2.7500    2.0430 h1        1 MOL      0.045965
     17 H6         -4.2320    3.4630    3.3660 hc        1 MOL      0.116131
     18 H7         -3.2670    1.8810    3.4280 hc        1 MOL      0.116131
     19 N2         -2.2110    4.5610    0.3450 n         1 MOL     -0.424027
     20 C7         -2.5700    5.5550   -0.6480 c3        1 MOL      0.309248
     21 C8         -3.5770    5.0080   -1.6560 c         1 MOL      0.543671
     22 O5         -3.8830    5.8010   -2.5840 o         1 MOL     -0.609336
     23 C9         -1.2300    6.0540   -1.2280 c3        1 MOL     -0.309014
     24 H8         -1.7560    3.6930    0.1060 hn        1 MOL      0.219784
     25 H9         -3.1180    6.3390   -0.1180 h1        1 MOL     -0.001368
     26 H10        -0.6990    5.2850   -1.7850 hc        1 MOL      0.071967
     27 H11        -1.5090    6.8100   -1.9620 hc        1 MOL      0.071967
     28 H12        -0.5820    6.4090   -0.4240 hc        1 MOL      0.071967
     29 N3         -4.2000    3.8710   -1.5090 n         1 MOL     -0.527668
     30 C10        -4.9730    3.3570   -2.6220 c3        1 MOL      0.244347
     31 C11        -6.1630    2.5130   -2.2010 c         1 MOL      0.273462
     32 O6         -7.1450    2.4460   -3.0060 o         1 MOL     -0.551517
     33 C12        -3.9010    2.4570   -3.4230 c3        1 MOL     -0.178344
     34 C13        -3.1700    1.4240   -2.6030 c         1 MOL      0.651854
     35 O7         -1.9300    1.4510   -2.4250 o         1 MOL     -0.675077
     36 O8         -3.7490    0.5440   -1.8960 o         1 MOL     -0.675077
     37 H13        -4.0230    3.2830   -0.7110 hn        1 MOL      0.297440
     38 H14        -5.2150    4.1150   -3.3620 h1        1 MOL      0.069486
     39 H15        -3.1700    3.0890   -3.9400 hc        1 MOL      0.042059
     40 H16        -4.4690    1.8880   -4.1610 hc        1 MOL      0.042059
     41 N4         -6.3000    1.8000   -1.0270 n         1 MOL      0.023439
     42 C14        -7.4560    1.0830   -0.6010 c3        1 MOL     -0.353078
     43 C15        -7.4720   -0.3670   -1.1030 c         1 MOL      0.512499
     44 O9         -8.5180   -1.0570   -0.9870 o         1 MOL     -0.596945
     45 H17        -5.5490    1.8150   -0.3590 hn        1 MOL      0.026478
     46 H18        -8.3820    1.5380   -0.9540 h1        1 MOL      0.156954
     47 H19        -7.5170    1.0800    0.4860 h1        1 MOL      0.156954
     48 N5         -6.3230   -0.8840   -1.6880 n         1 MOL     -0.295078
     49 C16        -6.1600   -2.2540   -2.2360 c3        1 MOL      0.001454
     50 C17        -6.1170   -3.3870   -1.2280 c         1 MOL      0.463390
     51 O10        -6.1100   -4.5290   -1.5880 o         1 MOL     -0.535260
     52 C18        -4.9060   -2.3340   -3.1110 c3        1 MOL     -0.245105
     53 C19        -3.5000   -2.2680   -2.5210 c         1 MOL      0.662771
     54 N6         -2.4980   -2.0640   -3.3950 n         1 MOL     -0.790991
     55 O11        -3.2970   -2.2620   -1.3100 o         1 MOL     -0.328069
     56 H20        -5.5340   -0.2710   -1.7890 hn        1 MOL      0.247342
     57 H21        -7.0070   -2.5130   -2.8840 h1        1 MOL      0.105784
     58 H22        -4.9210   -1.5310   -3.8490 hc        1 MOL      0.059645
     59 H23        -4.8430   -3.3130   -3.5940 hc        1 MOL      0.059645
     60 H24        -2.6520   -1.7380   -4.3420 hn        1 MOL      0.356147
     61 H25        -1.5360   -1.9800   -3.1100 hn        1 MOL      0.356147
     62 N7         -6.2100   -3.0250    0.0490 n         1 MOL     -0.227129
     63 C20        -6.3920   -3.9960    1.2200 c3        1 MOL     -0.209400
     64 C21        -5.0380   -4.5190    1.8010 c         1 MOL      0.519212
     65 O12        -4.9560   -5.2700    2.7800 o         1 MOL     -0.595243
     66 H26        -6.2270   -2.0490    0.3110 hn        1 MOL      0.240026
     67 H27        -6.9070   -4.9290    0.9990 h1        1 MOL      0.114005
     68 H28        -6.9740   -3.4900    1.9890 h1        1 MOL      0.114005
     69 N8         -3.9200   -4.0080    1.3140 n         1 MOL     -0.160005
     70 C22        -2.5230   -4.5200    1.4680 c3        1 MOL     -0.170536
     71 C23        -1.4740   -3.4250    1.7350 c         1 MOL      0.606806
     72 O13        -1.7660   -2.3700    1.2020 o         1 MOL     -0.632432
     73 C24        -2.0450   -5.4040    0.2870 c3        1 MOL      0.696575
     74 C25        -2.8950   -6.6640    0.0420 c3        1 MOL     -0.433205
     75 O14        -2.1470   -4.6240   -0.8720 oh        1 MOL     -0.661296
     76 H29        -4.0410   -3.3250    0.5730 hn        1 MOL      0.096469
     77 H30        -2.4190   -5.1410    2.3500 h1        1 MOL      0.042447
     78 H31        -1.0220   -5.6830    0.4930 h1        1 MOL     -0.099744
     79 H32        -2.0370   -3.6740   -0.7670 ho        1 MOL      0.303803
     80 H33        -2.2670   -7.5440    0.1900 hc        1 MOL      0.094722
     81 H34        -3.6210   -6.7440    0.8500 hc        1 MOL      0.094722
     82 H35        -3.2160   -6.5980   -0.9930 hc        1 MOL      0.094722
     83 N9         -0.2670   -3.6800    2.3270 n         1 MOL     -0.513941
     84 C26         0.9570   -2.8320    2.2810 c3        1 MOL      0.088670
     85 C27         1.5990   -3.0420    0.9260 c         1 MOL      0.587811
     86 O15         1.9160   -4.2040    0.5850 o         1 MOL     -0.611116
     87 C28         1.8400   -2.8040    3.5310 c3        1 MOL      0.087490
     88 C29         1.1490   -2.0030    4.7110 c3        1 MOL      0.115712
     89 C30         3.1540   -2.0680    3.3260 c3        1 MOL     -0.489646
     90 C31         1.6980   -2.2410    6.1390 c3        1 MOL     -0.094243
     91 H36        -0.1990   -4.6160    2.7020 hn        1 MOL      0.271651
     92 H37         0.6340   -1.7930    2.2030 h1        1 MOL      0.033618
     93 H38         1.9550   -3.8420    3.8590 hc        1 MOL      0.012926
     94 H39         0.0990   -2.2650    4.7300 hc        1 MOL     -0.013718
     95 H40         1.1290   -0.9150    4.5910 hc        1 MOL     -0.013718
     96 H41         2.8840   -1.1660    2.7630 hc        1 MOL      0.127445
     97 H42         3.5580   -1.6030    4.2230 hc        1 MOL      0.127445
     98 H43         3.8780   -2.6860    2.8120 hc        1 MOL      0.127445
     99 H44         1.2300   -1.5510    6.8450 hc        1 MOL      0.010183
    100 H45         1.3810   -3.2600    6.3860 hc        1 MOL      0.010183
    101 H46         2.7720   -2.0870    6.1510 hc        1 MOL      0.010183
    102 N10         1.9410   -1.9930    0.1260 n         1 MOL     -0.227991
    103 C32         2.8060   -2.0500   -1.1510 c3        1 MOL      0.049436
    104 C33         4.2290   -1.5520   -0.7580 c         1 MOL      0.366121
    105 O16         4.3240   -0.8290    0.2340 o         1 MOL     -0.321175
    106 C34         2.2270   -1.1760   -2.2290 c3        1 MOL     -0.210160
    107 C35         0.7250   -1.3700   -2.5360 c         1 MOL      0.680131
    108 O17        -0.1970   -1.1270   -1.7310 o         1 MOL     -0.667016
    109 O18         0.4460   -1.6040   -3.7590 o         1 MOL     -0.667016
    110 H47         1.6600   -1.1130    0.5060 hn        1 MOL      0.029839
    111 H48         2.8270   -3.1100   -1.4320 h1        1 MOL      0.072168
    112 H49         2.7030   -1.2500   -3.2030 hc        1 MOL      0.060942
    113 H50         2.4090   -0.1610   -1.8780 hc        1 MOL      0.060942
    114 N11         5.2580   -1.9790   -1.5040 n         1 MOL     -0.567822
    115 C36         6.6150   -1.4760   -1.2460 c3        1 MOL      0.358819
    116 C37         6.7800    0.0720   -1.1950 c         1 MOL      0.216538
    117 O19         7.5790    0.4790   -0.3550 o         1 MOL     -0.471883
    118 C38         7.4810   -2.1900   -2.2450 c3        1 MOL     -0.358254
    119 C39         8.9790   -1.8690   -1.9260 ca        1 MOL      0.246184
    120 C40         9.6760   -2.6980   -0.9900 ca        1 MOL     -0.306844
    121 C41         9.6500   -0.8850   -2.6600 ca        1 MOL     -0.306844
    122 C42        11.0260   -2.3860   -0.6690 ca        1 MOL      0.031360
    123 C43        10.9660   -0.5710   -2.2440 ca        1 MOL      0.031360
    124 C44        11.6100   -1.2890   -1.2530 ca        1 MOL     -0.257666
    125 H51         5.1700   -2.5660   -2.3140 hn        1 MOL      0.334119
    126 H52         6.9360   -1.8290   -0.2650 h1        1 MOL      0.066639
    127 H53         7.3260   -1.8780   -3.2800 hc        1 MOL      0.101531
    128 H54         7.2600   -3.2590   -2.2690 hc        1 MOL      0.101531
    129 H55         9.1660   -3.5090   -0.4860 ha        1 MOL      0.152469
    130 H56         9.2990   -0.2940   -3.4860 ha        1 MOL      0.152469
    131 H57        11.5800   -2.9970    0.0330 ha        1 MOL      0.079670
    132 H58        11.5680    0.2220   -2.6560 ha        1 MOL      0.079670
    133 H59        12.5370   -0.9260   -0.8330 ha        1 MOL      0.132720
    134 N12         6.0930    0.9000   -1.9520 n         1 MOL     -0.015684
    135 C45         6.2410    2.3740   -1.7300 c3        1 MOL      0.167953
    136 C46         5.6690    2.9650   -0.4460 c         1 MOL      0.262594
    137 O20         6.1490    3.9530    0.1590 o         1 MOL     -0.504484
    138 C47         5.7450    3.0170   -2.9830 c3        1 MOL     -0.125463
    139 C48         5.5120    1.8350   -3.9730 c3        1 MOL     -0.083319
    140 C49         5.3630    0.5990   -3.1220 c3        1 MOL      0.051993
    141 H60         7.2850    2.6400   -1.5650 h1        1 MOL      0.039090
    142 H61         4.7530    3.4370   -2.7890 hc        1 MOL      0.059653
    143 H62         6.4770    3.7390   -3.3480 hc        1 MOL      0.059653
    144 H63         4.5900    1.9350   -4.5370 hc        1 MOL      0.036359
    145 H64         6.3350    1.6890   -4.6660 hc        1 MOL      0.036359
    146 H65         4.3410    0.4330   -2.7870 h1        1 MOL      0.022537
    147 H66         5.7070   -0.3060   -3.6200 h1        1 MOL      0.022537
    148 N13         4.6330    2.3150    0.0940 n         1 MOL     -0.132361
    149 C50         4.1380    2.5120    1.4660 c3        1 MOL     -0.046905
    150 C51         5.0140    1.8890    2.6090 c         1 MOL      0.430822
    151 O21         5.0270    2.4310    3.7420 o         1 MOL     -0.542303
    152 C52         2.6460    1.9900    1.6410 c3        1 MOL      0.074958
    153 C53         1.8300    2.0030    0.3150 c3        1 MOL     -0.230210
    154 C54         0.4380    1.4090    0.5020 c         1 MOL      0.757549
    155 O22        -0.5130    2.0630    0.0510 o         1 MOL     -0.679715
    156 O23         0.2090    0.2910    0.9610 o         1 MOL     -0.679715
    157 H67         4.5370    1.4400   -0.4020 hn        1 MOL      0.091991
    158 H68         4.0910    3.5820    1.6710 h1        1 MOL      0.102201
    159 H69         2.1690    2.6670    2.3520 hc        1 MOL      0.019800
    160 H70         2.6280    1.0410    2.1630 hc        1 MOL      0.019800
    161 H71         2.3450    1.4010   -0.4380 hc        1 MOL      0.080984
    162 H72         1.7960    3.0490    0.0320 hc        1 MOL      0.080984
    163 N14         5.6290    0.6930    2.3250 n         1 MOL     -0.094446
    164 C55         6.5290    0.1360    3.2890 c3        1 MOL     -0.151712
    165 H73         7.0730    0.9400    3.7850 h1        1 MOL      0.060340
    166 H74         5.9650   -0.4310    4.0300 h1        1 MOL      0.060340
    167 H75         7.2360   -0.5250    2.7870 h1        1 MOL      0.060340
    168 H76         5.5120    0.2100    1.4480 hn        1 MOL      0.113414
    169 Ca1        -2.0640   -0.0470   -0.1670 Ca        1 MOL      1.646152
    170 O24        -1.8170    0.0850    2.6570 oh        1 MOL     -0.687575
    171 H77        -0.8630    0.1510    2.5220 ho        1 MOL      0.335841
    172 H78        -1.9540    0.4290    3.5420 ho        1 MOL      0.335841
    173 O25        -4.5880   -0.5950    0.8340 oh        1 MOL     -0.687575
    174 H79        -4.9480    0.2960    0.8000 ho        1 MOL      0.335841
    175 H80        -4.7340   -0.8770    1.7450 ho        1 MOL      0.335841
@<TRIPOS>BOND
     1    1    2 1   
     2    1    4 1   
     3    1    5 1   
     4    1    6 1   
     5    2    3 2   
     6    2    7 1   
     7    7    8 1   
     8    7   15 1   
     9    8    9 1   
    10    8   11 1   
    11    8   16 1   
    12    9   10 2   
    13    9   19 1   
    14   11   12 1   
    15   11   17 1   
    16   11   18 1   
    17   12   13 1   
    18   12   14 1   
    19   19   20 1   
    20   19   24 1   
    21   20   21 1   
    22   20   23 1   
    23   20   25 1   
    24   21   22 2   
    25   21   29 1   
    26   23   26 1   
    27   23   27 1   
    28   23   28 1   
    29   29   30 1   
    30   29   37 1   
    31   30   31 1   
    32   30   33 1   
    33   30   38 1   
    34   31   32 2   
    35   31   41 1   
    36   33   34 1   
    37   33   39 1   
    38   33   40 1   
    39   34   35 1   
    40   34   36 1   
    41   41   42 1   
    42   41   45 1   
    43   42   43 1   
    44   42   46 1   
    45   42   47 1   
    46   43   44 2   
    47   43   48 1   
    48   48   49 1   
    49   48   56 1   
    50   49   50 1   
    51   49   52 1   
    52   49   57 1   
    53   50   51 2   
    54   50   62 1   
    55   52   53 1   
    56   52   58 1   
    57   52   59 1   
    58   53   54 1   
    59   53   55 2   
    60   54   60 1   
    61   54   61 1   
    62   62   63 1   
    63   62   66 1   
    64   63   64 1   
    65   63   67 1   
    66   63   68 1   
    67   64   65 2   
    68   64   69 1   
    69   69   70 1   
    70   69   76 1   
    71   70   71 1   
    72   70   73 1   
    73   70   77 1   
    74   71   72 2   
    75   71   83 1   
    76   73   74 1   
    77   73   75 1   
    78   73   78 1   
    79   74   80 1   
    80   74   81 1   
    81   74   82 1   
    82   75   79 1   
    83   83   84 1   
    84   83   91 1   
    85   84   85 1   
    86   84   87 1   
    87   84   92 1   
    88   85   86 2   
    89   85  102 1   
    90   87   88 1   
    91   87   89 1   
    92   87   93 1   
    93   88   90 1   
    94   88   94 1   
    95   88   95 1   
    96   89   96 1   
    97   89   97 1   
    98   89   98 1   
    99   90   99 1   
   100   90  100 1   
   101   90  101 1   
   102  102  103 1   
   103  102  110 1   
   104  103  104 1   
   105  103  106 1   
   106  103  111 1   
   107  104  105 2   
   108  104  114 1   
   109  106  107 1   
   110  106  112 1   
   111  106  113 1   
   112  107  108 1   
   113  107  109 1   
   114  114  115 1   
   115  114  125 1   
   116  115  116 1   
   117  115  118 1   
   118  115  126 1   
   119  116  117 2   
   120  116  134 1   
   121  118  119 1   
   122  118  127 1   
   123  118  128 1   
   124  119  120 ar  
   125  119  121 ar  
   126  120  122 ar  
   127  120  129 1   
   128  121  123 ar  
   129  121  130 1   
   130  122  124 ar  
   131  122  131 1   
   132  123  124 ar  
   133  123  132 1   
   134  124  133 1   
   135  134  135 1   
   136  134  140 1   
   137  135  136 1   
   138  135  138 1   
   139  135  141 1   
   140  136  137 2   
   141  136  148 1   
   142  138  139 1   
   143  138  142 1   
   144  138  143 1   
   145  139  140 1   
   146  139  144 1   
   147  139  145 1   
   148  140  146 1   
   149  140  147 1   
   150  148  149 1   
   151  148  157 1   
   152  149  150 1   
   153  149  152 1   
   154  149  158 1   
   155  150  151 2   
   156  150  163 1   
   157  152  153 1   
   158  152  159 1   
   159  152  160 1   
   160  153  154 1   
   161  153  161 1   
   162  153  162 1   
   163  154  155 1   
   164  154  156 1   
   165  163  164 1   
   166  163  168 1   
   167  164  165 1   
   168  164  166 1   
   169  164  167 1   
   170  170  171 1   
   171  170  172 1   
   172  173  174 1   
   173  173  175 1   
@<TRIPOS>SUBSTRUCTURE
     1 MOL         1 TEMP              0 ****  ****    0 ROOT
