@<TRIPOS>MOLECULE
MOL
  189   185     1     0     0
SMALL
resp


@<TRIPOS>ATOM
      1 C1         -1.0980    1.2850    6.9020 c3        1 MOL     -0.285332
      2 C2         -1.0800    1.2100    5.4020 c         1 MOL      0.709929
      3 O1         -0.1770    1.7110    4.7400 o         1 MOL     -0.622710
      4 H1         -0.1070    1.5630    7.2630 hc        1 MOL      0.073219
      5 H2         -1.8240    2.0330    7.2200 hc        1 MOL      0.073219
      6 H3         -1.3740    0.3130    7.3110 hc        1 MOL      0.073219
      7 N1         -2.1580    0.6890    4.7980 n         1 MOL     -0.493315
      8 C3         -2.4270    0.7520    3.3590 c3        1 MOL      0.075502
      9 C4         -2.7150    2.2210    2.9770 c         1 MOL      0.484388
     10 O2         -3.7010    2.8800    3.4070 o         1 MOL     -0.578198
     11 C5         -3.5380   -0.2530    3.0450 c3        1 MOL     -0.146815
     12 C6         -4.0140   -0.4110    1.5950 c         1 MOL      0.705499
     13 O3         -4.9220   -1.2560    1.4250 o         1 MOL     -0.658153
     14 O4         -3.4830    0.3140    0.6830 o         1 MOL     -0.658153
     15 H4         -2.9270    0.3190    5.3350 hn        1 MOL      0.287879
     16 H5         -1.5630    0.3610    2.8230 h1        1 MOL     -0.000001
     17 H6         -4.4230    0.0930    3.5870 hc        1 MOL      0.035985
     18 H7         -3.3250   -1.2260    3.4860 hc        1 MOL      0.035985
     19 N2         -1.7500    2.9010    2.3610 n         1 MOL     -0.090386
     20 C7         -1.7290    4.3670    2.1500 c3        1 MOL     -0.109578
     21 C8         -2.6870    4.8740    1.0350 c         1 MOL      0.571721
     22 O5         -2.8020    6.0530    0.7850 o         1 MOL     -0.602203
     23 C9         -0.2760    4.8950    1.8710 c3        1 MOL     -0.230086
     24 C10         0.1290    4.7440    0.4240 c3        1 MOL      0.024377
     25 C11         1.5970    5.2070    0.1860 c3        1 MOL      0.021121
     26 C12         1.9820    4.9630   -1.2940 c3        1 MOL     -0.048427
     27 N3          1.7290    6.0550   -2.1790 n4        1 MOL     -0.240326
     28 H8         -0.8780    2.4490    2.0960 hn        1 MOL      0.190770
     29 H9         -2.1250    4.8150    3.0600 h1        1 MOL      0.123673
     30 H10         0.5000    4.3870    2.4270 hc        1 MOL      0.089450
     31 H11        -0.2270    5.9680    2.0650 hc        1 MOL      0.089450
     32 H12        -0.4720    5.3700   -0.2280 hc        1 MOL      0.019628
     33 H13        -0.0210    3.7220    0.0830 hc        1 MOL      0.019628
     34 H14         2.3160    4.6400    0.7730 hc        1 MOL      0.019903
     35 H15         1.7230    6.2620    0.4250 hc        1 MOL      0.019903
     36 H16         1.3210    4.1310   -1.5350 hx        1 MOL      0.065536
     37 H17         3.0490    4.7490   -1.2820 hx        1 MOL      0.065536
     38 H18         0.7410    6.2170   -2.3040 hn        1 MOL      0.299894
     39 H19         2.0960    6.8400   -1.6620 hn        1 MOL      0.299894
     40 H20         2.2170    5.9960   -3.0620 hn        1 MOL      0.299894
     41 N4         -3.4030    4.0230    0.4110 n         1 MOL     -0.271060
     42 C13        -4.4640    4.3300   -0.6470 c3        1 MOL     -0.128457
     43 C14        -5.7500    3.5300   -0.5000 c         1 MOL      0.425027
     44 O6         -6.6950    3.8250   -1.2390 o         1 MOL     -0.507933
     45 C15        -3.8270    4.2660   -2.0820 c3        1 MOL     -0.211359
     46 C16        -3.0980    3.0120   -2.5400 c         1 MOL      0.822954
     47 O7         -2.3640    3.1050   -3.5650 o         1 MOL     -0.752334
     48 O8         -3.2130    1.9280   -1.9860 o         1 MOL     -0.752334
     49 H21        -3.1770    3.0450    0.5370 hn        1 MOL      0.084896
     50 H22        -4.7440    5.3810   -0.6130 h1        1 MOL      0.166130
     51 H23        -3.1450    5.0870   -2.3160 hc        1 MOL      0.069336
     52 H24        -4.5640    4.5120   -2.8530 hc        1 MOL      0.069336
     53 N5         -5.7710    2.5470    0.4550 n         1 MOL     -0.089582
     54 C17        -6.7750    1.6820    0.8330 c3        1 MOL     -0.352829
     55 C18        -7.2800    0.7520   -0.3090 c         1 MOL      0.603401
     56 O9         -8.4380    0.3370   -0.3790 o         1 MOL     -0.572237
     57 H25        -4.8470    2.3870    0.8330 hn        1 MOL      0.147903
     58 H26        -7.6000    2.3300    1.1340 h1        1 MOL      0.144047
     59 H27        -6.4700    0.9990    1.6210 h1        1 MOL      0.144047
     60 N6         -6.4120    0.5290   -1.3640 n         1 MOL     -0.382771
     61 C19        -6.7450   -0.3160   -2.4900 c3        1 MOL      0.038449
     62 C20        -6.8730   -1.8440   -2.1210 c         1 MOL      0.485693
     63 O10        -7.3470   -2.5470   -2.9500 o         1 MOL     -0.554003
     64 C21        -5.6530   -0.2620   -3.6220 c3        1 MOL     -0.364711
     65 C22        -4.2300   -0.5600   -3.3510 c         1 MOL      0.827695
     66 O11        -3.8620   -0.8940   -2.1840 o         1 MOL     -0.673297
     67 O12        -3.5430   -0.8160   -4.3410 o         1 MOL     -0.673297
     68 H28        -5.4710    0.9000   -1.2760 hn        1 MOL      0.349254
     69 H29        -7.6950   -0.1110   -2.9890 h1        1 MOL      0.095333
     70 H30        -5.7640    0.7280   -4.0590 hc        1 MOL      0.103436
     71 H31        -5.9380   -0.9880   -4.3860 hc        1 MOL      0.103436
     72 N7         -6.5040   -2.2040   -0.9180 n         1 MOL     -0.161008
     73 C23        -6.6610   -3.5310   -0.3520 c3        1 MOL     -0.180406
     74 C24        -5.3220   -4.2750   -0.1640 c         1 MOL      0.520968
     75 O13        -5.3010   -5.4530    0.1450 o         1 MOL     -0.550659
     76 H32        -6.0950   -1.4880   -0.3490 hn        1 MOL      0.193393
     77 H33        -7.2900   -4.1750   -0.9770 h1        1 MOL      0.105527
     78 H34        -7.0870   -3.5840    0.6480 h1        1 MOL      0.105527
     79 N8         -4.1370   -3.6050   -0.2800 n         1 MOL     -0.130591
     80 C25        -2.8510   -4.3840   -0.2280 c3        1 MOL     -0.389426
     81 C26        -1.6930   -3.5350    0.2420 c         1 MOL      0.869845
     82 O14        -1.6100   -2.3260   -0.0640 o         1 MOL     -0.745286
     83 C27        -2.4840   -4.9340   -1.6040 c3        1 MOL      0.396889
     84 C28        -3.2290   -6.1650   -2.0770 c3        1 MOL     -0.428951
     85 O15        -2.7620   -3.9100   -2.5750 oh        1 MOL     -0.600920
     86 H35        -4.0950   -2.5990   -0.2350 hn        1 MOL      0.176313
     87 H36        -2.9980   -5.2940    0.3550 h1        1 MOL      0.138112
     88 H37        -1.4280   -5.1710   -1.7180 h1        1 MOL      0.046054
     89 H38        -3.6650   -3.6390   -2.3970 ho        1 MOL      0.388598
     90 H39        -3.2370   -6.9570   -1.3260 hc        1 MOL      0.108708
     91 H40        -4.2630   -5.8830   -2.2570 hc        1 MOL      0.108708
     92 H41        -2.7260   -6.5150   -2.9700 hc        1 MOL      0.108708
     93 N9         -0.7290   -4.2010    0.8920 n         1 MOL     -0.747811
     94 C29         0.5240   -3.4820    1.3080 c3        1 MOL      0.240795
     95 C30         1.7000   -3.9090    0.4080 c         1 MOL      0.376099
     96 O16         2.1420   -5.0150    0.4400 o         1 MOL     -0.525240
     97 C31         0.8060   -3.5430    2.8150 c3        1 MOL      0.015153
     98 C32        -0.3100   -2.7800    3.5310 c3        1 MOL      0.159690
     99 C33         2.2100   -3.1960    3.2640 c3        1 MOL     -0.409550
    100 C34        -0.3990   -2.8550    5.0620 c3        1 MOL     -0.192914
    101 H42        -0.7450   -5.1830    1.1290 hn        1 MOL      0.365198
    102 H43         0.3330   -2.4440    1.0080 h1        1 MOL     -0.038551
    103 H44         0.6280   -4.5880    3.0440 hc        1 MOL      0.030704
    104 H45        -1.2260   -3.2070    3.1330 hc        1 MOL      0.007502
    105 H46        -0.2660   -1.7150    3.3080 hc        1 MOL      0.007502
    106 H47         2.9930   -3.5600    2.6010 hc        1 MOL      0.106419
    107 H48         2.3500   -2.1310    3.4770 hc        1 MOL      0.106419
    108 H49         2.3010   -3.5980    4.2630 hc        1 MOL      0.106419
    109 H50        -1.2530   -2.2790    5.4000 hc        1 MOL      0.035123
    110 H51        -0.5770   -3.8810    5.3670 hc        1 MOL      0.035123
    111 H52         0.4670   -2.4650    5.6000 hc        1 MOL      0.035123
    112 N10         2.2060   -2.8960   -0.2870 n         1 MOL     -0.093171
    113 C35         3.4050   -2.9800   -1.1700 c3        1 MOL     -0.029120
    114 C36         4.7280   -2.5580   -0.5020 c         1 MOL      0.359479
    115 O17         4.7810   -2.1060    0.6390 o         1 MOL     -0.257288
    116 C37         3.1390   -2.1820   -2.4280 c3        1 MOL      0.265201
    117 C38         1.8420   -2.4820   -3.1350 c3        1 MOL     -0.357329
    118 O18         3.0470   -0.7360   -2.1460 oh        1 MOL     -0.588895
    119 H53         1.7090   -2.0220   -0.2760 hn        1 MOL      0.203712
    120 H54         3.5860   -3.9650   -1.6110 h1        1 MOL      0.058337
    121 H55         3.8950   -2.3330   -3.2000 h1        1 MOL      0.029686
    122 H56         2.1440   -0.6930   -1.8300 ho        1 MOL      0.317479
    123 H57         1.8500   -3.4280   -3.6920 hc        1 MOL      0.103164
    124 H58         0.9970   -2.5750   -2.4650 hc        1 MOL      0.103164
    125 H59         1.6140   -1.6220   -3.7670 hc        1 MOL      0.103164
    126 N11         5.8370   -2.6770   -1.2070 n         1 MOL     -0.420446
    127 C39         7.1610   -2.3620   -0.5300 c3        1 MOL     -0.025614
    128 C40         7.2630   -0.9470    0.0160 c         1 MOL      0.382323
    129 O19         7.8650   -0.6710    1.0500 o         1 MOL     -0.479993
    130 C41         8.3300   -2.5520   -1.5490 c3        1 MOL      0.143999
    131 C42         8.5230   -3.9980   -1.8570 c3        1 MOL     -0.427196
    132 O20         8.1490   -1.8770   -2.7890 oh        1 MOL     -0.587746
    133 H60         5.8440   -2.9050   -2.1940 hn        1 MOL      0.304671
    134 H61         7.2000   -3.0250    0.3300 h1        1 MOL      0.162927
    135 H62         9.1990   -2.1430   -1.0370 h1        1 MOL      0.085254
    136 H63         9.0280   -1.9780   -3.1690 ho        1 MOL      0.408772
    137 H64         7.6990   -4.4420   -2.4290 hc        1 MOL      0.130196
    138 H65         9.2540   -4.1520   -2.6470 hc        1 MOL      0.130196
    139 H66         8.6840   -4.5640   -0.9410 hc        1 MOL      0.130196
    140 N12         6.7020   -0.0610   -0.8250 n         1 MOL     -0.294554
    141 C43         6.4710    1.3840   -0.5110 c3        1 MOL     -0.023833
    142 C44         5.5710    1.6960    0.6880 c         1 MOL      0.469009
    143 O21         5.5100    2.7980    1.1720 o         1 MOL     -0.565801
    144 C45         5.7960    1.9430   -1.7580 c3        1 MOL     -0.235614
    145 C46         6.5910    1.8390   -3.0450 c3        1 MOL      0.011087
    146 C47         7.9270    2.5640   -3.1100 c3        1 MOL     -0.270423
    147 C48         7.8280    4.0550   -3.0110 c3        1 MOL      0.308725
    148 N13         9.0860    4.8390   -3.2460 n4        1 MOL     -0.365927
    149 H67         6.3780   -0.3090   -1.7530 hn        1 MOL      0.317703
    150 H68         7.4340    1.8490   -0.2710 h1        1 MOL      0.112517
    151 H69         5.6270    2.9990   -1.5810 hc        1 MOL      0.068153
    152 H70         4.8410    1.5030   -2.0300 hc        1 MOL      0.068153
    153 H71         6.0550    2.2420   -3.9070 hc        1 MOL      0.053512
    154 H72         6.6900    0.7880   -3.3330 hc        1 MOL      0.053512
    155 H73         8.3550    2.3360   -4.0880 hc        1 MOL      0.080588
    156 H74         8.6210    2.2850   -2.3070 hc        1 MOL      0.080588
    157 H75         7.3410    4.4110   -2.1040 hx        1 MOL      0.017244
    158 H76         7.1640    4.4300   -3.8010 hx        1 MOL      0.017244
    159 H77         9.5120    4.6470   -4.1360 hn        1 MOL      0.274351
    160 H78         9.0630    5.8530   -3.2480 hn        1 MOL      0.274351
    161 H79         9.8010    4.5750   -2.5770 hn        1 MOL      0.274351
    162 N14         4.9140    0.6800    1.1600 n         1 MOL     -0.077238
    163 C49         3.9960    0.7480    2.3420 c3        1 MOL     -0.133713
    164 C50         4.5240   -0.1700    3.5260 c         1 MOL      0.427946
    165 O22         4.2680    0.0770    4.7110 o         1 MOL     -0.522458
    166 C51         2.6000    0.3780    1.8920 c3        1 MOL      0.080708
    167 C52         2.0390    1.3640    0.8470 c3        1 MOL     -0.244911
    168 C53         0.8120    0.6560    0.3550 c         1 MOL      0.394757
    169 O23         0.8350   -0.3580   -0.3960 o         1 MOL     -0.496484
    170 O24        -0.3260    1.1270    0.6930 o         1 MOL     -0.496484
    171 H80         5.0460   -0.2090    0.7120 hn        1 MOL      0.014207
    172 H81         4.0510    1.7400    2.8030 h1        1 MOL      0.126046
    173 H82         1.9170    0.3630    2.7400 hc        1 MOL      0.065461
    174 H83         2.6560   -0.5870    1.3920 hc        1 MOL      0.065461
    175 H84         2.7590    1.5940    0.0600 hc        1 MOL      0.097643
    176 H85         1.6840    2.2760    1.3240 hc        1 MOL      0.097643
    177 N15         5.2490   -1.2660    3.2450 n         1 MOL     -0.081616
    178 C54         5.8230   -2.0880    4.2930 c3        1 MOL     -0.354868
    179 H86         6.7160   -1.6030    4.6870 h1        1 MOL      0.128760
    180 H87         5.0950   -2.2150    5.0960 h1        1 MOL      0.128760
    181 H88         6.0890   -3.0630    3.8860 h1        1 MOL      0.128760
    182 H89         5.3300   -1.5000    2.2690 hn        1 MOL      0.087565
    183 Ca1        -1.7830   -0.0160   -1.1490 Ca        1 MOL      1.607111
    184 O25        -0.9950   -0.9780   -3.2880 oh        1 MOL     -0.831958
    185 H90        -0.3000   -0.9500   -3.9440 ho        1 MOL      0.385453
    186 H91        -1.8140   -0.9560   -3.7920 ho        1 MOL      0.385453
    187 O26        -0.2140    1.8060   -2.3200 oh        1 MOL     -0.831958
    188 H92         0.6750    1.7070   -2.6490 ho        1 MOL      0.385453
    189 H93        -0.6190    2.4290   -2.9150 ho        1 MOL      0.385453
@<TRIPOS>BOND
     1    1    2 1   
     2    1    4 1   
     3    1    5 1   
     4    1    6 1   
     5    2    3 2   
     6    2    7 1   
     7    7    8 1   
     8    7   15 1   
     9    8    9 1   
    10    8   11 1   
    11    8   16 1   
    12    9   10 2   
    13    9   19 1   
    14   11   12 1   
    15   11   17 1   
    16   11   18 1   
    17   12   13 1   
    18   12   14 1   
    19   19   20 1   
    20   19   28 1   
    21   20   21 1   
    22   20   23 1   
    23   20   29 1   
    24   21   22 2   
    25   21   41 1   
    26   23   24 1   
    27   23   30 1   
    28   23   31 1   
    29   24   25 1   
    30   24   32 1   
    31   24   33 1   
    32   25   26 1   
    33   25   34 1   
    34   25   35 1   
    35   26   27 1   
    36   26   36 1   
    37   26   37 1   
    38   27   38 1   
    39   27   39 1   
    40   27   40 1   
    41   41   42 1   
    42   41   49 1   
    43   42   43 1   
    44   42   45 1   
    45   42   50 1   
    46   43   44 2   
    47   43   53 1   
    48   45   46 1   
    49   45   51 1   
    50   45   52 1   
    51   46   47 1   
    52   46   48 1   
    53   53   54 1   
    54   53   57 1   
    55   54   55 1   
    56   54   58 1   
    57   54   59 1   
    58   55   56 2   
    59   55   60 1   
    60   60   61 1   
    61   60   68 1   
    62   61   62 1   
    63   61   64 1   
    64   61   69 1   
    65   62   63 2   
    66   62   72 1   
    67   64   65 1   
    68   64   70 1   
    69   64   71 1   
    70   65   66 1   
    71   65   67 1   
    72   72   73 1   
    73   72   76 1   
    74   73   74 1   
    75   73   77 1   
    76   73   78 1   
    77   74   75 2   
    78   74   79 1   
    79   79   80 1   
    80   79   86 1   
    81   80   81 1   
    82   80   83 1   
    83   80   87 1   
    84   81   82 2   
    85   81   93 1   
    86   83   84 1   
    87   83   85 1   
    88   83   88 1   
    89   84   90 1   
    90   84   91 1   
    91   84   92 1   
    92   85   89 1   
    93   93   94 1   
    94   93  101 1   
    95   94   95 1   
    96   94   97 1   
    97   94  102 1   
    98   95   96 2   
    99   95  112 1   
   100   97   98 1   
   101   97   99 1   
   102   97  103 1   
   103   98  100 1   
   104   98  104 1   
   105   98  105 1   
   106   99  106 1   
   107   99  107 1   
   108   99  108 1   
   109  100  109 1   
   110  100  110 1   
   111  100  111 1   
   112  112  113 1   
   113  112  119 1   
   114  113  114 1   
   115  113  116 1   
   116  113  120 1   
   117  114  115 2   
   118  114  126 1   
   119  116  117 1   
   120  116  118 1   
   121  116  121 1   
   122  117  123 1   
   123  117  124 1   
   124  117  125 1   
   125  118  122 1   
   126  126  127 1   
   127  126  133 1   
   128  127  128 1   
   129  127  130 1   
   130  127  134 1   
   131  128  129 2   
   132  128  140 1   
   133  130  131 1   
   134  130  132 1   
   135  130  135 1   
   136  131  137 1   
   137  131  138 1   
   138  131  139 1   
   139  132  136 1   
   140  140  141 1   
   141  140  149 1   
   142  141  142 1   
   143  141  144 1   
   144  141  150 1   
   145  142  143 2   
   146  142  162 1   
   147  144  145 1   
   148  144  151 1   
   149  144  152 1   
   150  145  146 1   
   151  145  153 1   
   152  145  154 1   
   153  146  147 1   
   154  146  155 1   
   155  146  156 1   
   156  147  148 1   
   157  147  157 1   
   158  147  158 1   
   159  148  159 1   
   160  148  160 1   
   161  148  161 1   
   162  162  163 1   
   163  162  171 1   
   164  163  164 1   
   165  163  166 1   
   166  163  172 1   
   167  164  165 2   
   168  164  177 1   
   169  166  167 1   
   170  166  173 1   
   171  166  174 1   
   172  167  168 1   
   173  167  175 1   
   174  167  176 1   
   175  168  169 1   
   176  168  170 1   
   177  177  178 1   
   178  177  182 1   
   179  178  179 1   
   180  178  180 1   
   181  178  181 1   
   182  184  185 1   
   183  184  186 1   
   184  187  188 1   
   185  187  189 1   
@<TRIPOS>SUBSTRUCTURE
     1 MOL         1 TEMP              0 ****  ****    0 ROOT
