@<TRIPOS>MOLECULE
MOL
  175   173     1     0     0
SMALL
resp


@<TRIPOS>ATOM
      1 C1          0.6070    3.6900    5.3410 c3        1 MOL     -0.455896
      2 C2         -0.0040    3.6130    3.9760 c         1 MOL      0.698082
      3 O1          0.7180    3.9970    3.0630 o         1 MOL     -0.547751
      4 H1         -0.1830    3.7170    6.0910 hc        1 MOL      0.107818
      5 H2          1.2360    2.8150    5.5080 hc        1 MOL      0.107818
      6 H3          1.2120    4.5940    5.4180 hc        1 MOL      0.107818
      7 N1         -1.2750    3.3660    3.8750 n         1 MOL     -0.524022
      8 C3         -2.0400    3.4380    2.5990 c3        1 MOL      0.119014
      9 C4         -2.2350    4.8330    1.9390 c         1 MOL      0.651246
     10 O2         -2.2880    5.8080    2.7240 o         1 MOL     -0.567098
     11 C5         -3.4300    2.9750    2.9870 c3        1 MOL     -0.325335
     12 C6         -4.1350    2.3200    1.7730 c         1 MOL      0.915073
     13 O3         -3.5760    2.2830    0.6740 o         1 MOL     -0.713098
     14 O4         -5.2680    1.8630    2.0570 o         1 MOL     -0.713098
     15 H4         -1.7860    3.1390    4.7180 hn        1 MOL      0.312427
     16 H5         -1.5550    2.7600    1.9020 h1        1 MOL      0.003124
     17 H6         -4.1190    3.7550    3.3050 hc        1 MOL      0.052642
     18 H7         -3.4230    2.1840    3.7320 hc        1 MOL      0.052642
     19 N2         -2.4040    4.8140    0.6090 n         1 MOL     -0.689577
     20 C7         -3.0860    5.8040   -0.2180 c3        1 MOL      0.553982
     21 C8         -4.1200    5.2530   -1.3540 c         1 MOL      0.249724
     22 O5         -4.5390    6.0010   -2.2490 o         1 MOL     -0.537813
     23 C9         -1.9520    6.6970   -0.6510 c3        1 MOL     -0.318340
     24 H8         -2.2270    3.9260    0.1700 hn        1 MOL      0.352217
     25 H9         -3.6440    6.4240    0.4830 h1        1 MOL     -0.051735
     26 H10        -1.3550    7.0350    0.2080 hc        1 MOL      0.069239
     27 H11        -1.4130    6.1480   -1.4110 hc        1 MOL      0.069239
     28 H12        -2.4180    7.5210   -1.1940 hc        1 MOL      0.069239
     29 N3         -4.4690    3.9740   -1.4310 n         1 MOL     -0.220469
     30 C10        -5.2160    3.4050   -2.5320 c3        1 MOL      0.186895
     31 C11        -6.3540    2.4430   -2.0520 c         1 MOL      0.336881
     32 O6         -7.1890    2.1320   -2.8670 o         1 MOL     -0.540087
     33 C12        -4.2450    2.6460   -3.4060 c3        1 MOL     -0.150396
     34 C13        -3.4940    1.4710   -2.7200 c         1 MOL      0.729614
     35 O7         -2.4940    1.1420   -3.3620 o         1 MOL     -0.700819
     36 O8         -3.9690    0.7430   -1.8370 o         1 MOL     -0.700819
     37 H13        -4.2270    3.3840   -0.6490 hn        1 MOL      0.115730
     38 H14        -5.7070    4.1420   -3.1780 h1        1 MOL      0.058912
     39 H15        -3.5350    3.3940   -3.7380 hc        1 MOL      0.036480
     40 H16        -4.9030    2.3690   -4.2360 hc        1 MOL      0.036480
     41 N4         -6.4050    2.0550   -0.7880 n         1 MOL     -0.252648
     42 C14        -7.4110    1.1250   -0.1320 c3        1 MOL     -0.099776
     43 C15        -7.3130   -0.3550   -0.7010 c         1 MOL      0.476645
     44 O9         -8.2230   -1.1060   -0.4950 o         1 MOL     -0.580880
     45 H17        -5.6160    2.3840   -0.2520 hn        1 MOL      0.132222
     46 H18        -8.4550    1.3570   -0.3180 h1        1 MOL      0.098151
     47 H19        -7.3680    1.1250    0.9530 h1        1 MOL      0.098151
     48 N5         -6.1650   -0.7440   -1.3250 n         1 MOL     -0.181005
     49 C16        -6.0570   -2.0420   -1.9380 c3        1 MOL     -0.067158
     50 C17        -5.9850   -3.2950   -1.0030 c         1 MOL      0.437282
     51 O10        -6.0310   -4.4630   -1.4180 o         1 MOL     -0.528704
     52 C18        -4.9650   -2.1040   -3.0480 c3        1 MOL     -0.212579
     53 C19        -3.5910   -2.3390   -2.4640 c         1 MOL      0.601025
     54 N6         -2.6410   -2.5880   -3.2720 n         1 MOL     -0.607872
     55 O11        -3.1970   -2.2380   -1.3250 o         1 MOL     -0.556871
     56 H20        -5.3880   -0.1020   -1.3900 hn        1 MOL      0.231266
     57 H21        -6.9580   -2.1840   -2.5250 h1        1 MOL      0.105608
     58 H22        -5.0610   -1.1540   -3.5780 hc        1 MOL      0.084223
     59 H23        -5.1520   -2.8970   -3.7760 hc        1 MOL      0.084223
     60 H24        -2.7150   -2.5570   -4.2790 hn        1 MOL      0.311144
     61 H25        -1.6960   -2.4820   -2.9390 hn        1 MOL      0.311144
     62 N7         -5.8760   -3.1390    0.3660 n         1 MOL     -0.176630
     63 C20        -5.8910   -4.2180    1.4390 c3        1 MOL     -0.350564
     64 C21        -4.5700   -4.9530    1.6580 c         1 MOL      0.628977
     65 O12        -4.5300   -5.8920    2.4200 o         1 MOL     -0.588441
     66 H26        -5.6330   -2.2110    0.6910 hn        1 MOL      0.161756
     67 H27        -6.6430   -4.9680    1.2050 h1        1 MOL      0.143859
     68 H28        -6.1900   -3.8530    2.4240 h1        1 MOL      0.143859
     69 N8         -3.5110   -4.3770    1.0460 n         1 MOL     -0.396374
     70 C22        -2.1410   -4.7840    1.1550 c3        1 MOL      0.095799
     71 C23        -1.3470   -3.5260    1.5480 c         1 MOL      0.421789
     72 O13        -1.6520   -2.4200    1.0900 o         1 MOL     -0.525241
     73 C24        -1.5510   -5.5360   -0.0460 c3        1 MOL      0.480281
     74 C25        -1.9090   -6.9980   -0.2030 c3        1 MOL     -0.199074
     75 O14        -1.7200   -4.8940   -1.3310 oh        1 MOL     -0.647733
     76 H29        -3.8160   -3.6920    0.3780 hn        1 MOL      0.252236
     77 H30        -2.2370   -5.4350    2.0290 h1        1 MOL      0.009521
     78 H31        -0.5090   -5.5810    0.2720 h1        1 MOL     -0.056233
     79 H32        -1.3930   -3.9930   -1.3230 ho        1 MOL      0.393265
     80 H33        -1.5610   -7.4680   -1.1270 hc        1 MOL      0.039823
     81 H34        -1.4340   -7.5710    0.6000 hc        1 MOL      0.039823
     82 H35        -2.9700   -7.1660   -0.0240 hc        1 MOL      0.039823
     83 N9         -0.2130   -3.7020    2.2170 n         1 MOL     -0.370601
     84 C26         0.9240   -2.7970    2.0220 c3        1 MOL     -0.062229
     85 C27         1.6430   -3.1440    0.7840 c         1 MOL      0.449529
     86 O15         1.8460   -4.3090    0.5160 o         1 MOL     -0.574564
     87 C28         1.8850   -2.8520    3.2140 c3        1 MOL      0.449646
     88 C29         1.1600   -2.4520    4.4970 c3        1 MOL     -0.164515
     89 C30         3.1640   -2.0120    3.1640 c3        1 MOL     -0.469097
     90 C31         1.5740   -3.3430    5.6770 c3        1 MOL      0.013474
     91 H36        -0.0180   -4.6760    2.3990 hn        1 MOL      0.237261
     92 H37         0.5860   -1.7720    1.8970 h1        1 MOL      0.045702
     93 H38         2.3140   -3.8520    3.3430 hc        1 MOL     -0.063412
     94 H39         0.0730   -2.5290    4.4430 hc        1 MOL      0.033282
     95 H40         1.5320   -1.4630    4.7890 hc        1 MOL      0.033282
     96 H41         3.7850   -2.3410    2.3400 hc        1 MOL      0.096635
     97 H42         2.8140   -1.0130    2.8940 hc        1 MOL      0.096635
     98 H43         3.6620   -1.9770    4.1390 hc        1 MOL      0.096635
     99 H44         1.3330   -4.3470    5.3170 hc        1 MOL     -0.012022
    100 H45         2.6410   -3.2880    5.8960 hc        1 MOL     -0.012022
    101 H46         0.9560   -3.1340    6.5500 hc        1 MOL     -0.012022
    102 N10         1.9390   -2.0950   -0.0620 n         1 MOL     -0.110029
    103 C32         2.7320   -2.0760   -1.3140 c3        1 MOL      0.165018
    104 C33         4.1430   -1.5210   -0.8750 c         1 MOL      0.268695
    105 O16         4.3660   -0.9520    0.1950 o         1 MOL     -0.277020
    106 C34         1.9950   -1.2310   -2.2830 c3        1 MOL     -0.380906
    107 C35         0.5820   -1.6240   -2.6960 c         1 MOL      0.812705
    108 O17        -0.3900   -1.3900   -1.9930 o         1 MOL     -0.704689
    109 O18         0.4030   -2.2480   -3.7520 o         1 MOL     -0.704689
    110 H47         1.6060   -1.2370    0.3380 hn        1 MOL      0.053018
    111 H48         2.7960   -3.1260   -1.5860 h1        1 MOL      0.045439
    112 H49         2.5620   -1.1370   -3.2080 hc        1 MOL      0.085892
    113 H50         1.9120   -0.2490   -1.8090 hc        1 MOL      0.085892
    114 N11         5.0730   -1.4570   -1.8630 n         1 MOL     -0.480323
    115 C36         6.4560   -1.1650   -1.4840 c3        1 MOL      0.266645
    116 C37         6.6870    0.3940   -1.3050 c         1 MOL      0.307515
    117 O19         7.3280    0.7410   -0.2970 o         1 MOL     -0.463202
    118 C38         7.5130   -1.7260   -2.4270 c3        1 MOL     -0.214873
    119 C39         8.9250   -1.5640   -1.9130 ca        1 MOL      0.128702
    120 C40         9.3390   -2.3500   -0.8520 ca        1 MOL     -0.251157
    121 C41         9.7650   -0.4600   -2.3690 ca        1 MOL     -0.251157
    122 C42        10.6330   -2.1350   -0.3280 ca        1 MOL      0.024892
    123 C43        11.0260   -0.3530   -1.8670 ca        1 MOL      0.024892
    124 C44        11.5130   -1.2170   -0.8880 ca        1 MOL     -0.245409
    125 H51         4.8260   -1.9230   -2.7240 hn        1 MOL      0.300549
    126 H52         6.5900   -1.6080   -0.4900 h1        1 MOL      0.076968
    127 H53         7.4660   -1.1550   -3.3540 hc        1 MOL      0.068383
    128 H54         7.3610   -2.8000   -2.5260 hc        1 MOL      0.068383
    129 H55         8.6360   -3.0060   -0.3750 ha        1 MOL      0.142112
    130 H56         9.3100    0.2420   -3.0490 ha        1 MOL      0.142112
    131 H57        10.9420   -2.8100    0.4530 ha        1 MOL      0.074985
    132 H58        11.6690    0.3780   -2.3140 ha        1 MOL      0.074985
    133 H59        12.5430   -1.0970   -0.5620 ha        1 MOL      0.129019
    134 N12         6.1570    1.3750   -2.1310 n         1 MOL     -0.046744
    135 C45         6.1420    2.8140   -1.7230 c3        1 MOL     -0.067545
    136 C46         5.3250    3.1300   -0.4410 c         1 MOL      0.419023
    137 O20         5.6370    4.0700    0.1900 o         1 MOL     -0.521598
    138 C47         5.5450    3.5780   -2.8760 c3        1 MOL     -0.068213
    139 C48         4.7570    2.4950   -3.6630 c3        1 MOL     -0.027351
    140 C49         5.6700    1.2570   -3.4970 c3        1 MOL     -0.002707
    141 H60         7.1460    3.1890   -1.5020 h1        1 MOL      0.087260
    142 H61         4.8950    4.3900   -2.5620 hc        1 MOL      0.045083
    143 H62         6.3140    3.9810   -3.5270 hc        1 MOL      0.045083
    144 H63         3.7270    2.4930   -3.3160 hc        1 MOL      0.032732
    145 H64         4.8070    2.7200   -4.7260 hc        1 MOL      0.032732
    146 H65         5.0920    0.3440   -3.6400 h1        1 MOL      0.020267
    147 H66         6.5080    1.2420   -4.1900 h1        1 MOL      0.020267
    148 N13         4.5800    2.2000    0.1070 n         1 MOL     -0.162827
    149 C50         3.9980    2.2550    1.4680 c3        1 MOL      0.030799
    150 C51         4.7800    1.6240    2.5380 c         1 MOL      0.428775
    151 O21         4.8250    2.1900    3.6630 o         1 MOL     -0.573624
    152 C52         2.5750    1.6360    1.3870 c3        1 MOL      0.132103
    153 C53         1.7250    2.0610    0.1730 c3        1 MOL     -0.110391
    154 C54         0.3760    1.3860    0.1480 c         1 MOL      0.810016
    155 O22        -0.6060    1.9100   -0.4430 o         1 MOL     -0.784705
    156 O23         0.2820    0.2320    0.5600 o         1 MOL     -0.784705
    157 H67         4.4190    1.3400   -0.4070 hn        1 MOL      0.136752
    158 H68         3.8120    3.2880    1.7530 h1        1 MOL      0.082951
    159 H69         2.0790    1.9060    2.3200 hc        1 MOL     -0.022588
    160 H70         2.5910    0.5360    1.3690 hc        1 MOL     -0.022588
    161 H71         2.2390    1.8040   -0.7560 hc        1 MOL      0.027548
    162 H72         1.4920    3.1180    0.1920 hc        1 MOL      0.027548
    163 N14         5.5160    0.5420    2.2630 n         1 MOL     -0.052779
    164 C55         6.6560    0.1220    3.1400 c3        1 MOL     -0.232331
    165 H73         7.4260   -0.3530    2.5310 h1        1 MOL      0.091988
    166 H74         7.0750    0.9980    3.6370 h1        1 MOL      0.091988
    167 H75         6.2980   -0.5850    3.8890 h1        1 MOL      0.091988
    168 H76         5.4310    0.2040    1.3170 hn        1 MOL      0.031069
    169 Ca1        -2.1450   -0.0820   -0.3250 Ca        1 MOL      1.704116
    170 O24        -1.7480    0.1240    2.5100 oh        1 MOL     -0.643506
    171 H77        -0.8050    0.0620    2.3890 ho        1 MOL      0.318146
    172 H78        -1.8490    0.6460    3.3070 ho        1 MOL      0.318146
    173 O25        -4.1310   -0.7000    1.2640 oh        1 MOL     -0.643506
    174 H79        -3.6900   -0.8860    2.0870 ho        1 MOL      0.318146
    175 H80        -4.7930   -0.0560    1.4910 ho        1 MOL      0.318146
@<TRIPOS>BOND
     1    1    2 1   
     2    1    4 1   
     3    1    5 1   
     4    1    6 1   
     5    2    3 2   
     6    2    7 1   
     7    7    8 1   
     8    7   15 1   
     9    8    9 1   
    10    8   11 1   
    11    8   16 1   
    12    9   10 2   
    13    9   19 1   
    14   11   12 1   
    15   11   17 1   
    16   11   18 1   
    17   12   13 1   
    18   12   14 1   
    19   19   20 1   
    20   19   24 1   
    21   20   21 1   
    22   20   23 1   
    23   20   25 1   
    24   21   22 2   
    25   21   29 1   
    26   23   26 1   
    27   23   27 1   
    28   23   28 1   
    29   29   30 1   
    30   29   37 1   
    31   30   31 1   
    32   30   33 1   
    33   30   38 1   
    34   31   32 2   
    35   31   41 1   
    36   33   34 1   
    37   33   39 1   
    38   33   40 1   
    39   34   35 1   
    40   34   36 1   
    41   41   42 1   
    42   41   45 1   
    43   42   43 1   
    44   42   46 1   
    45   42   47 1   
    46   43   44 2   
    47   43   48 1   
    48   48   49 1   
    49   48   56 1   
    50   49   50 1   
    51   49   52 1   
    52   49   57 1   
    53   50   51 2   
    54   50   62 1   
    55   52   53 1   
    56   52   58 1   
    57   52   59 1   
    58   53   54 1   
    59   53   55 2   
    60   54   60 1   
    61   54   61 1   
    62   62   63 1   
    63   62   66 1   
    64   63   64 1   
    65   63   67 1   
    66   63   68 1   
    67   64   65 2   
    68   64   69 1   
    69   69   70 1   
    70   69   76 1   
    71   70   71 1   
    72   70   73 1   
    73   70   77 1   
    74   71   72 2   
    75   71   83 1   
    76   73   74 1   
    77   73   75 1   
    78   73   78 1   
    79   74   80 1   
    80   74   81 1   
    81   74   82 1   
    82   75   79 1   
    83   83   84 1   
    84   83   91 1   
    85   84   85 1   
    86   84   87 1   
    87   84   92 1   
    88   85   86 2   
    89   85  102 1   
    90   87   88 1   
    91   87   89 1   
    92   87   93 1   
    93   88   90 1   
    94   88   94 1   
    95   88   95 1   
    96   89   96 1   
    97   89   97 1   
    98   89   98 1   
    99   90   99 1   
   100   90  100 1   
   101   90  101 1   
   102  102  103 1   
   103  102  110 1   
   104  103  104 1   
   105  103  106 1   
   106  103  111 1   
   107  104  105 2   
   108  104  114 1   
   109  106  107 1   
   110  106  112 1   
   111  106  113 1   
   112  107  108 1   
   113  107  109 1   
   114  114  115 1   
   115  114  125 1   
   116  115  116 1   
   117  115  118 1   
   118  115  126 1   
   119  116  117 2   
   120  116  134 1   
   121  118  119 1   
   122  118  127 1   
   123  118  128 1   
   124  119  120 ar  
   125  119  121 ar  
   126  120  122 ar  
   127  120  129 1   
   128  121  123 ar  
   129  121  130 1   
   130  122  124 ar  
   131  122  131 1   
   132  123  124 ar  
   133  123  132 1   
   134  124  133 1   
   135  134  135 1   
   136  134  140 1   
   137  135  136 1   
   138  135  138 1   
   139  135  141 1   
   140  136  137 2   
   141  136  148 1   
   142  138  139 1   
   143  138  142 1   
   144  138  143 1   
   145  139  140 1   
   146  139  144 1   
   147  139  145 1   
   148  140  146 1   
   149  140  147 1   
   150  148  149 1   
   151  148  157 1   
   152  149  150 1   
   153  149  152 1   
   154  149  158 1   
   155  150  151 2   
   156  150  163 1   
   157  152  153 1   
   158  152  159 1   
   159  152  160 1   
   160  153  154 1   
   161  153  161 1   
   162  153  162 1   
   163  154  155 1   
   164  154  156 1   
   165  163  164 1   
   166  163  168 1   
   167  164  165 1   
   168  164  166 1   
   169  164  167 1   
   170  170  171 1   
   171  170  172 1   
   172  173  174 1   
   173  173  175 1   
@<TRIPOS>SUBSTRUCTURE
     1 MOL         1 TEMP              0 ****  ****    0 ROOT
