@<TRIPOS>MOLECULE
MOL
  179   176     1     0     0
SMALL
resp


@<TRIPOS>ATOM
      1 C1          1.5840    4.0780    4.0740 c3        1 MOL     -0.432093
      2 C2          0.7900    3.4210    2.9380 c         1 MOL      0.662395
      3 O1          1.3870    3.2770    1.8550 o         1 MOL     -0.585657
      4 H1          1.0060    4.9030    4.4910 hc        1 MOL      0.111242
      5 H2          1.7800    3.3420    4.8540 hc        1 MOL      0.111242
      6 H3          2.5290    4.4570    3.6860 hc        1 MOL      0.111242
      7 N1         -0.4550    3.0490    3.1330 n         1 MOL     -0.690735
      8 C3         -1.4180    2.7050    2.0890 c3        1 MOL      0.109811
      9 C4         -2.3270    3.9080    1.6540 c         1 MOL      0.579196
     10 O2         -3.5130    4.0530    1.9660 o         1 MOL     -0.449543
     11 C5         -2.3670    1.5860    2.6600 c3        1 MOL     -0.357393
     12 C6         -3.2140    0.9740    1.5420 c         1 MOL      0.757117
     13 O3         -4.3410    0.4490    1.8050 o         1 MOL     -0.657398
     14 O4         -2.6400    0.7980    0.4830 o         1 MOL     -0.657398
     15 H4         -0.8150    3.1230    4.0640 hn        1 MOL      0.371504
     16 H5         -0.8650    2.3380    1.2320 h1        1 MOL      0.052069
     17 H6         -3.1680    2.0490    3.2320 hc        1 MOL      0.093228
     18 H7         -1.7870    0.7960    3.1390 hc        1 MOL      0.093228
     19 N2         -1.6640    4.6810    0.6610 n         1 MOL     -0.579314
     20 C7         -2.2280    5.8380   -0.0030 c3        1 MOL     -0.086978
     21 C8         -3.2680    5.6050   -1.0090 c         1 MOL      0.409568
     22 O5         -4.0700    6.4600   -1.3750 o         1 MOL     -0.560040
     23 C9         -1.1170    6.5780   -0.6910 c3        1 MOL      0.044562
     24 C10        -0.0700    7.1830    0.2760 c3        1 MOL     -0.074993
     25 C11         1.0760    7.7160   -0.6450 c3        1 MOL     -0.151925
     26 C12         2.2300    8.4150    0.0210 c3        1 MOL     -0.072089
     27 N3          3.0480    7.4720    0.8200 n4        1 MOL     -0.367619
     28 H8         -0.7520    4.3260    0.4170 hn        1 MOL      0.448323
     29 H9         -2.6020    6.4780    0.8080 h1        1 MOL      0.128365
     30 H10        -1.5480    7.3600   -1.3240 hc        1 MOL      0.025970
     31 H11        -0.6180    5.9300   -1.4200 hc        1 MOL      0.025970
     32 H12         0.3650    6.3710    0.8510 hc        1 MOL      0.046724
     33 H13        -0.6230    7.9920    0.7620 hc        1 MOL      0.046724
     34 H14         0.6180    8.4730   -1.2710 hc        1 MOL      0.098918
     35 H15         1.3930    6.8270   -1.1930 hc        1 MOL      0.098918
     36 H16         1.8360    9.2360    0.6240 hx        1 MOL      0.130544
     37 H17         2.8700    8.8120   -0.7670 hx        1 MOL      0.130544
     38 H18         2.5620    7.0230    1.5890 hn        1 MOL      0.337716
     39 H19         3.3440    6.6230    0.3570 hn        1 MOL      0.337716
     40 H20         3.9410    7.8480    1.1120 hn        1 MOL      0.337716
     41 N4         -3.3900    4.4190   -1.5020 n         1 MOL     -0.061530
     42 C13        -4.3730    3.8890   -2.4630 c3        1 MOL     -0.017963
     43 C14        -5.6860    3.3760   -1.8190 c         1 MOL      0.374804
     44 O6         -6.8140    3.4710   -2.3370 o         1 MOL     -0.521955
     45 C15        -3.7380    2.8850   -3.3930 c3        1 MOL     -0.141718
     46 C16        -2.9830    1.8250   -2.6840 c         1 MOL      0.630347
     47 O7         -3.3590    0.5980   -2.6740 o         1 MOL     -0.729927
     48 O8         -1.9520    2.0800   -1.9740 o         1 MOL     -0.729927
     49 H21        -2.7640    3.7170   -1.1280 hn        1 MOL      0.120139
     50 H22        -4.6300    4.7050   -3.1370 h1        1 MOL      0.095143
     51 H23        -3.0380    3.5720   -3.8800 hc        1 MOL      0.056396
     52 H24        -4.3980    2.5380   -4.1900 hc        1 MOL      0.056396
     53 N5         -5.6140    2.8890   -0.5610 n         1 MOL      0.052019
     54 C17        -6.6020    2.2680    0.2710 c3        1 MOL     -0.345256
     55 C18        -7.1970    0.8700   -0.0620 c         1 MOL      0.649424
     56 O9         -8.4030    0.6530    0.1540 o         1 MOL     -0.560226
     57 H25        -4.6930    2.9710   -0.1510 hn        1 MOL      0.042726
     58 H26        -7.4000    2.9940    0.1150 h1        1 MOL      0.124321
     59 H27        -6.1860    2.2200    1.2750 h1        1 MOL      0.124321
     60 N6         -6.2960   -0.0540   -0.4760 n         1 MOL     -0.367570
     61 C19        -6.5880   -1.4780   -0.7690 c3        1 MOL      0.039940
     62 C20        -6.4110   -2.3960    0.4940 c         1 MOL      0.361039
     63 O10        -6.8700   -3.5390    0.4770 o         1 MOL     -0.506438
     64 C21        -5.7340   -2.0310   -1.9670 c3        1 MOL     -0.301056
     65 C22        -4.2310   -2.1970   -1.8240 c         1 MOL      0.592622
     66 N7         -3.5610   -2.4830   -2.9230 n         1 MOL     -0.694177
     67 O11        -3.6020   -2.0800   -0.7840 o         1 MOL     -0.342509
     68 H28        -5.2990    0.1280   -0.4890 hn        1 MOL      0.206860
     69 H29        -7.6330   -1.5750   -1.0730 h1        1 MOL      0.112467
     70 H30        -5.9700   -1.3680   -2.7940 hc        1 MOL      0.104462
     71 H31        -6.1120   -3.0470   -2.1020 hc        1 MOL      0.104462
     72 H32        -4.0160   -2.6700   -3.8060 hn        1 MOL      0.319740
     73 H33        -2.6360   -2.8480   -2.7690 hn        1 MOL      0.319740
     74 N8         -5.7900   -1.8850    1.6050 n         1 MOL     -0.183938
     75 C23        -5.6190   -2.5980    2.8950 c3        1 MOL     -0.059290
     76 C24        -4.2520   -3.3200    3.1160 c         1 MOL      0.451061
     77 O12        -4.0570   -4.1150    4.0520 o         1 MOL     -0.559308
     78 H34        -5.2860   -1.0090    1.5390 hn        1 MOL      0.153794
     79 H35        -6.4080   -3.3520    2.9020 h1        1 MOL      0.081537
     80 H36        -5.9480   -1.9650    3.7270 h1        1 MOL      0.081537
     81 N9         -3.3350   -3.0610    2.1860 n         1 MOL     -0.212537
     82 C25        -1.9480   -3.7110    2.2570 c3        1 MOL     -0.081643
     83 C26        -0.8400   -2.9440    1.5030 c         1 MOL      0.605129
     84 O13        -1.0630   -2.1620    0.5680 o         1 MOL     -0.681878
     85 C27        -2.0670   -5.2010    1.8490 c3        1 MOL     -0.156357
     86 C28        -2.7010   -5.4790    0.4840 ca        1 MOL      0.124911
     87 C29        -1.8570   -5.3430   -0.6020 ca        1 MOL     -0.237522
     88 C30        -3.9830   -5.9250    0.3270 ca        1 MOL     -0.237522
     89 C31        -2.2110   -5.6370   -1.8760 ca        1 MOL     -0.209611
     90 C32        -4.3900   -6.2500   -0.9820 ca        1 MOL     -0.209611
     91 C33        -3.5220   -6.1090   -2.1030 ca        1 MOL      0.315401
     92 O14        -3.9940   -6.4340   -3.3110 oh        1 MOL     -0.532387
     93 H37        -3.4540   -2.3310    1.4950 hn        1 MOL      0.198299
     94 H38        -1.6120   -3.7110    3.2970 h1        1 MOL      0.104462
     95 H39        -2.6380   -5.7370    2.6120 hc        1 MOL      0.081225
     96 H40        -1.0910   -5.6780    1.9380 hc        1 MOL      0.081225
     97 H41        -0.8760   -4.9440   -0.3830 ha        1 MOL      0.182116
     98 H42        -4.6320   -6.0430    1.1730 ha        1 MOL      0.182116
     99 H43        -1.4670   -5.5340   -2.6480 ha        1 MOL      0.118548
    100 H44        -5.3950   -6.6200   -1.1410 ha        1 MOL      0.118548
    101 H45        -4.9120   -6.7060   -3.1740 ho        1 MOL      0.398548
    102 N10         0.3870   -3.0770    2.0420 n         1 MOL     -0.450245
    103 C34         1.6280   -2.3880    1.5700 c3        1 MOL     -0.021623
    104 C35         2.7910   -3.3620    1.1720 c         1 MOL      0.519034
    105 O15         2.7560   -4.5410    1.5730 o         1 MOL     -0.552568
    106 C36         1.9900   -1.3770    2.7020 c3        1 MOL      0.004442
    107 C37         2.0470   -2.0420    4.0780 c3        1 MOL      0.022089
    108 C38         0.9680   -0.2750    2.7190 c3        1 MOL     -0.407040
    109 C39         2.5610   -1.2690    5.2500 c3        1 MOL     -0.181661
    110 H46         0.4510   -3.5980    2.9050 hn        1 MOL      0.261637
    111 H47         1.4390   -1.8020    0.6700 h1        1 MOL      0.134606
    112 H48         2.9210   -0.8380    2.4940 hc        1 MOL     -0.003664
    113 H49         2.7290   -2.8930    3.9990 hc        1 MOL      0.037353
    114 H50         1.0380   -2.3660    4.3110 hc        1 MOL      0.037353
    115 H51         0.0030   -0.5870    3.1120 hc        1 MOL      0.153583
    116 H52         1.3370    0.3610    3.5250 hc        1 MOL      0.153583
    117 H53         0.9300    0.2940    1.7930 hc        1 MOL      0.153583
    118 H54         1.7320   -0.7610    5.7350 hc        1 MOL      0.047474
    119 H55         3.0070   -1.9420    5.9880 hc        1 MOL      0.047474
    120 H56         3.3040   -0.5330    4.9380 hc        1 MOL      0.047474
    121 N11         3.7380   -2.8770    0.3810 n         1 MOL     -0.360623
    122 C40         4.9120   -3.6570   -0.1490 c3        1 MOL      0.085075
    123 C41         6.1380   -2.8420    0.2100 c         1 MOL      0.478847
    124 O16         6.0720   -1.8860    1.0420 o         1 MOL     -0.449911
    125 C42         4.7720   -3.8230   -1.6660 c3        1 MOL     -0.148408
    126 O17         4.9590   -2.5610   -2.3370 oh        1 MOL     -0.526752
    127 H57         3.6420   -1.9340    0.0440 hn        1 MOL      0.223204
    128 H58         4.9380   -4.6410    0.3060 h1        1 MOL      0.093506
    129 H59         3.8430   -4.3060   -1.9940 h1        1 MOL      0.111217
    130 H60         5.5850   -4.4860   -1.9590 h1        1 MOL      0.111217
    131 H61         5.1840   -2.6890   -3.2530 ho        1 MOL      0.392820
    132 N12         7.3060   -3.2710   -0.3330 n         1 MOL     -0.493718
    133 C43         8.5450   -2.5910   -0.1730 c3        1 MOL      0.232747
    134 C44         8.5210   -1.2670   -0.8540 c         1 MOL      0.473042
    135 O18         9.0730   -0.3840   -0.2160 o         1 MOL     -0.525568
    136 C45         9.6690   -3.4940   -0.7760 c3        1 MOL     -0.312714
    137 H62         7.4280   -4.2210   -0.6710 hn        1 MOL      0.292979
    138 H63         8.7970   -2.4560    0.8720 h1        1 MOL      0.056521
    139 H64        10.6260   -3.0570   -0.4930 hc        1 MOL      0.088725
    140 H65         9.4970   -4.5120   -0.4370 hc        1 MOL      0.088725
    141 H66         9.6670   -3.4420   -1.8600 hc        1 MOL      0.088725
    142 N13         8.0600   -1.0290   -2.0920 n         1 MOL     -0.293913
    143 C46         7.9670    0.2410   -2.7260 c3        1 MOL      0.060200
    144 C47         7.2830    1.2680   -1.8320 c         1 MOL      0.316284
    145 O19         7.6430    2.4480   -1.7810 o         1 MOL     -0.509530
    146 C48         7.2580    0.1930   -4.1060 c3        1 MOL     -0.295430
    147 H67         7.8120   -1.8440   -2.6310 hn        1 MOL      0.196412
    148 H68         8.9870    0.6000   -2.8050 h1        1 MOL      0.083324
    149 H69         7.3170    1.1650   -4.6050 hc        1 MOL      0.091269
    150 H70         7.8070   -0.4630   -4.7820 hc        1 MOL      0.091269
    151 H71         6.2140   -0.1090   -4.1430 hc        1 MOL      0.091269
    152 N14         6.2200    0.8710   -1.2130 n         1 MOL     -0.015094
    153 C49         5.3010    1.7140   -0.4440 c3        1 MOL     -0.319238
    154 C50         5.7980    2.0730    0.9480 c         1 MOL      0.471713
    155 O20         5.4710    3.1410    1.4820 o         1 MOL     -0.570388
    156 C51         3.8900    1.0920   -0.2300 c3        1 MOL      0.156652
    157 C52         3.0240    1.0240   -1.5210 c3        1 MOL     -0.062342
    158 C53         1.6380    0.3780   -1.1680 c         1 MOL      0.857723
    159 O21         1.3330   -0.7670   -1.5660 o         1 MOL     -0.799676
    160 O22         0.6980    1.0530   -0.7040 o         1 MOL     -0.799676
    161 H72         5.8570   -0.0710   -1.2660 hn        1 MOL      0.214331
    162 H73         5.2600    2.6230   -1.0360 h1        1 MOL      0.147472
    163 H74         3.3270    1.8330    0.3410 hc        1 MOL      0.018491
    164 H75         4.0040    0.1020    0.1950 hc        1 MOL      0.018491
    165 H76         3.5710    0.4090   -2.2460 hc        1 MOL     -0.030893
    166 H77         2.7640    2.0050   -1.9110 hc        1 MOL     -0.030893
    167 N15         6.6750    1.2380    1.5370 n         1 MOL     -0.042356
    168 C54         7.3960    1.4620    2.7770 c3        1 MOL     -0.302934
    169 H78         6.9730    2.3240    3.2920 h1        1 MOL      0.115292
    170 H79         7.3080    0.5810    3.4130 h1        1 MOL      0.115292
    171 H80         8.4470    1.6500    2.5570 h1        1 MOL      0.115292
    172 H81         6.8270    0.3200    1.1520 hn        1 MOL      0.105696
    173 Ca1        -1.2770   -0.3890   -1.3050 Ca        1 MOL      1.754724
    174 O23        -0.7050   -0.4020   -3.9620 oh        1 MOL     -0.797037
    175 H82         0.0980   -0.5710   -4.4600 ho        1 MOL      0.395339
    176 H83        -1.4020   -0.4630   -4.6160 ho        1 MOL      0.395339
    177 O24        -0.5840   -2.9630   -2.2720 oh        1 MOL     -0.797037
    178 H84         0.0670   -3.4900   -1.8230 ho        1 MOL      0.395339
    179 H85        -0.4290   -3.1220   -3.1980 ho        1 MOL      0.395339
@<TRIPOS>BOND
     1    1    2 1   
     2    1    4 1   
     3    1    5 1   
     4    1    6 1   
     5    2    3 2   
     6    2    7 1   
     7    7    8 1   
     8    7   15 1   
     9    8    9 1   
    10    8   11 1   
    11    8   16 1   
    12    9   10 2   
    13    9   19 1   
    14   11   12 1   
    15   11   17 1   
    16   11   18 1   
    17   12   13 1   
    18   12   14 1   
    19   19   20 1   
    20   19   28 1   
    21   20   21 1   
    22   20   23 1   
    23   20   29 1   
    24   21   22 2   
    25   21   41 1   
    26   23   24 1   
    27   23   30 1   
    28   23   31 1   
    29   24   25 1   
    30   24   32 1   
    31   24   33 1   
    32   25   26 1   
    33   25   34 1   
    34   25   35 1   
    35   26   27 1   
    36   26   36 1   
    37   26   37 1   
    38   27   38 1   
    39   27   39 1   
    40   27   40 1   
    41   41   42 1   
    42   41   49 1   
    43   42   43 1   
    44   42   45 1   
    45   42   50 1   
    46   43   44 2   
    47   43   53 1   
    48   45   46 1   
    49   45   51 1   
    50   45   52 1   
    51   46   47 1   
    52   46   48 1   
    53   53   54 1   
    54   53   57 1   
    55   54   55 1   
    56   54   58 1   
    57   54   59 1   
    58   55   56 2   
    59   55   60 1   
    60   60   61 1   
    61   60   68 1   
    62   61   62 1   
    63   61   64 1   
    64   61   69 1   
    65   62   63 2   
    66   62   74 1   
    67   64   65 1   
    68   64   70 1   
    69   64   71 1   
    70   65   66 1   
    71   65   67 2   
    72   66   72 1   
    73   66   73 1   
    74   74   75 1   
    75   74   78 1   
    76   75   76 1   
    77   75   79 1   
    78   75   80 1   
    79   76   77 2   
    80   76   81 1   
    81   81   82 1   
    82   81   93 1   
    83   82   83 1   
    84   82   85 1   
    85   82   94 1   
    86   83   84 2   
    87   83  102 1   
    88   85   86 1   
    89   85   95 1   
    90   85   96 1   
    91   86   87 ar  
    92   86   88 ar  
    93   87   89 ar  
    94   87   97 1   
    95   88   90 ar  
    96   88   98 1   
    97   89   91 ar  
    98   89   99 1   
    99   90   91 ar  
   100   90  100 1   
   101   91   92 1   
   102   92  101 1   
   103  102  103 1   
   104  102  110 1   
   105  103  104 1   
   106  103  106 1   
   107  103  111 1   
   108  104  105 2   
   109  104  121 1   
   110  106  107 1   
   111  106  108 1   
   112  106  112 1   
   113  107  109 1   
   114  107  113 1   
   115  107  114 1   
   116  108  115 1   
   117  108  116 1   
   118  108  117 1   
   119  109  118 1   
   120  109  119 1   
   121  109  120 1   
   122  121  122 1   
   123  121  127 1   
   124  122  123 1   
   125  122  125 1   
   126  122  128 1   
   127  123  124 2   
   128  123  132 1   
   129  125  126 1   
   130  125  129 1   
   131  125  130 1   
   132  126  131 1   
   133  132  133 1   
   134  132  137 1   
   135  133  134 1   
   136  133  136 1   
   137  133  138 1   
   138  134  135 2   
   139  134  142 1   
   140  136  139 1   
   141  136  140 1   
   142  136  141 1   
   143  142  143 1   
   144  142  147 1   
   145  143  144 1   
   146  143  146 1   
   147  143  148 1   
   148  144  145 2   
   149  144  152 1   
   150  146  149 1   
   151  146  150 1   
   152  146  151 1   
   153  152  153 1   
   154  152  161 1   
   155  153  154 1   
   156  153  156 1   
   157  153  162 1   
   158  154  155 2   
   159  154  167 1   
   160  156  157 1   
   161  156  163 1   
   162  156  164 1   
   163  157  158 1   
   164  157  165 1   
   165  157  166 1   
   166  158  159 1   
   167  158  160 1   
   168  167  168 1   
   169  167  172 1   
   170  168  169 1   
   171  168  170 1   
   172  168  171 1   
   173  174  175 1   
   174  174  176 1   
   175  177  178 1   
   176  177  179 1   
@<TRIPOS>SUBSTRUCTURE
     1 MOL         1 TEMP              0 ****  ****    0 ROOT
