@<TRIPOS>MOLECULE
MOL
  182   178     1     0     0
SMALL
resp


@<TRIPOS>ATOM
      1 C1          2.6100    2.1410    5.4260 c3        1 MOL     -0.331562
      2 C2          1.7640    2.2740    4.1240 c         1 MOL      0.716434
      3 O1          2.3070    2.4090    3.0600 o         1 MOL     -0.599311
      4 H1          1.9830    1.7510    6.2280 hc        1 MOL      0.086169
      5 H2          3.4430    1.4600    5.2520 hc        1 MOL      0.086169
      6 H3          2.9940    3.1200    5.7110 hc        1 MOL      0.086169
      7 N1          0.4440    2.2030    4.1840 n         1 MOL     -0.656572
      8 C3         -0.4100    2.0860    2.9400 c3        1 MOL      0.385524
      9 C4         -0.6560    3.4680    2.1460 c         1 MOL      0.424452
     10 O2         -1.4190    4.2900    2.6540 o         1 MOL     -0.527119
     11 C5         -1.8140    1.5310    3.3610 c3        1 MOL     -0.158784
     12 C6         -2.7740    1.2440    2.1340 c         1 MOL      0.935932
     13 O3         -3.8910    0.6880    2.2730 o         1 MOL     -0.781008
     14 O4         -2.4400    1.5910    0.9770 o         1 MOL     -0.781008
     15 H4          0.0830    2.2100    5.1240 hn        1 MOL      0.340884
     16 H5          0.0210    1.3250    2.2900 h1        1 MOL     -0.194850
     17 H6         -2.2600    2.1850    4.1180 hc        1 MOL      0.013556
     18 H7         -1.6150    0.5200    3.7250 hc        1 MOL      0.013556
     19 N2          0.0960    3.7440    1.1310 n         1 MOL     -0.275267
     20 C7          0.1650    5.0480    0.4230 c3        1 MOL      0.092808
     21 C8         -1.2150    5.6240   -0.0730 c         1 MOL      0.506143
     22 O5         -1.3870    6.8280    0.0710 o         1 MOL     -0.581110
     23 C9          1.3070    5.0330   -0.6100 c3        1 MOL     -0.484204
     24 C10         1.5720    6.4640   -1.0850 c3        1 MOL      0.071194
     25 C11         2.7930    6.4890   -1.9880 c3        1 MOL      0.038032
     26 C12         3.1780    7.8950   -2.4650 c3        1 MOL     -0.006604
     27 N3          3.3520    8.8900   -1.3250 n4        1 MOL     -0.301411
     28 H8          0.6710    2.9650    0.8330 hn        1 MOL      0.237952
     29 H9          0.3270    5.7950    1.2060 h1        1 MOL      0.079174
     30 H10         0.9350    4.4860   -1.4800 hc        1 MOL      0.166539
     31 H11         2.1990    4.6200   -0.1300 hc        1 MOL      0.166539
     32 H12         1.7430    7.0370   -0.1750 hc        1 MOL      0.016024
     33 H13         0.7240    6.9830   -1.5110 hc        1 MOL      0.016024
     34 H14         2.6370    5.8700   -2.8750 hc        1 MOL      0.025983
     35 H15         3.6070    6.0290   -1.4270 hc        1 MOL      0.025983
     36 H16         2.3910    8.2030   -3.1500 hx        1 MOL      0.085541
     37 H17         4.1350    7.8530   -2.9900 hx        1 MOL      0.085541
     38 H18         2.5180    9.0850   -0.7880 hn        1 MOL      0.314445
     39 H19         4.0620    8.5270   -0.7010 hn        1 MOL      0.314445
     40 H20         3.6550    9.7890   -1.6710 hn        1 MOL      0.314445
     41 N4         -2.2130    4.7890   -0.4160 n         1 MOL     -0.244022
     42 C13        -3.5290    5.2350   -0.9040 c3        1 MOL      0.050591
     43 C14        -4.7290    4.7300   -0.1070 c         1 MOL      0.375754
     44 O6         -5.8570    5.1880   -0.2520 o         1 MOL     -0.536490
     45 C15        -3.6160    4.7740   -2.3020 c3        1 MOL     -0.278355
     46 C16        -3.5090    3.2670   -2.5320 c         1 MOL      0.858418
     47 O7         -3.7750    2.8440   -3.6720 o         1 MOL     -0.739569
     48 O8         -3.0500    2.4780   -1.6850 o         1 MOL     -0.739569
     49 H21        -2.0090    3.8060   -0.4490 hn        1 MOL      0.136619
     50 H22        -3.5760    6.3130   -1.0310 h1        1 MOL      0.101385
     51 H23        -2.8980    5.2800   -2.9440 hc        1 MOL      0.076671
     52 H24        -4.5850    5.0610   -2.7030 hc        1 MOL      0.076671
     53 N5         -4.5660    3.6910    0.6890 n         1 MOL      0.015622
     54 C17        -5.6610    3.1910    1.6050 c3        1 MOL     -0.309519
     55 C18        -6.5710    2.1370    1.0360 c         1 MOL      0.640469
     56 O9         -7.6670    1.8980    1.5980 o         1 MOL     -0.571334
     57 H25        -3.6690    3.2420    0.7380 hn        1 MOL      0.016581
     58 H26        -6.1760    4.0590    1.9870 h1        1 MOL      0.134732
     59 H27        -5.1580    2.6250    2.3860 h1        1 MOL      0.134732
     60 N6         -6.0610    1.5340   -0.0310 n         1 MOL     -0.403436
     61 C19        -6.7260    0.3340   -0.6330 c3        1 MOL      0.073587
     62 C20        -6.7570   -0.9650    0.1940 c         1 MOL      0.272685
     63 O10        -7.5900   -1.8550   -0.1100 o         1 MOL     -0.508161
     64 C21        -6.0410    0.1480   -1.9650 c3        1 MOL     -0.163634
     65 C22        -4.7390   -0.7480   -2.0780 c         1 MOL      0.658357
     66 N7         -4.6460   -1.6880   -2.9780 n         1 MOL     -0.847648
     67 O11        -3.8520   -0.6440   -1.2630 o         1 MOL     -0.705831
     68 H28        -5.1070    1.7770   -0.2530 hn        1 MOL      0.232870
     69 H29        -7.7750    0.6050   -0.7770 h1        1 MOL      0.105195
     70 H30        -5.9130    1.0740   -2.5250 hc        1 MOL      0.071462
     71 H31        -6.8230   -0.4150   -2.4740 hc        1 MOL      0.071462
     72 H32        -5.4310   -1.9390   -3.5670 hn        1 MOL      0.401469
     73 H33        -3.8230   -2.2770   -3.0140 hn        1 MOL      0.401469
     74 N8         -5.9000   -1.1690    1.1820 n         1 MOL      0.005934
     75 C23        -6.0610   -2.4440    1.9540 c3        1 MOL     -0.350644
     76 C24        -4.8240   -3.3720    1.8590 c         1 MOL      0.781308
     77 O12        -4.8990   -4.3410    2.5970 o         1 MOL     -0.597548
     78 H34        -5.2230   -0.4820    1.4810 hn        1 MOL      0.218069
     79 H35        -6.9140   -3.0690    1.7020 h1        1 MOL      0.144585
     80 H36        -6.2610   -2.0640    2.9640 h1        1 MOL      0.144585
     81 N9         -3.8320   -2.9090    1.1110 n         1 MOL     -0.839050
     82 C25        -2.6700   -3.7320    0.7580 c3        1 MOL      0.389213
     83 C26        -1.4110   -2.8340    0.7160 c         1 MOL      0.747473
     84 O13        -1.5480   -1.6690    0.4690 o         1 MOL     -0.752687
     85 C27        -2.8710   -4.4750   -0.5870 c3        1 MOL     -0.321117
     86 C28        -4.1440   -5.3610   -0.6330 ca        1 MOL      0.205404
     87 C29        -5.3930   -4.7350   -0.9360 ca        1 MOL     -0.239729
     88 C30        -4.0940   -6.7890   -0.6100 ca        1 MOL     -0.239729
     89 C31        -6.5740   -5.4950   -1.1750 ca        1 MOL     -0.278232
     90 C32        -5.2770   -7.5340   -0.9180 ca        1 MOL     -0.278232
     91 C33        -6.5080   -6.8760   -1.0890 ca        1 MOL      0.403349
     92 O14        -7.6240   -7.5930   -1.3530 oh        1 MOL     -0.486941
     93 H37        -3.9990   -2.1140    0.5010 hn        1 MOL      0.540759
     94 H38        -2.4490   -4.4330    1.5610 h1        1 MOL      0.001322
     95 H39        -2.0180   -5.1460   -0.7430 hc        1 MOL      0.073683
     96 H40        -3.0390   -3.7000   -1.3310 hc        1 MOL      0.073683
     97 H41        -5.5820   -3.6710   -0.9320 ha        1 MOL      0.157073
     98 H42        -3.1340   -7.1900   -0.3320 ha        1 MOL      0.157073
     99 H43        -7.5140   -4.9950   -1.3620 ha        1 MOL      0.153246
    100 H44        -5.2690   -8.6170   -0.9090 ha        1 MOL      0.153246
    101 H45        -7.4860   -8.5290   -1.1720 ho        1 MOL      0.348236
    102 N10        -0.2470   -3.4490    0.9810 n         1 MOL     -0.613289
    103 C34         1.0980   -2.8150    0.8500 c3        1 MOL      0.003181
    104 C35         1.9410   -3.6390   -0.0880 c         1 MOL      0.445557
    105 O15         1.7550   -4.8570   -0.2580 o         1 MOL     -0.547515
    106 C36         1.8040   -2.5510    2.2510 c3        1 MOL      0.229397
    107 C37         2.0480   -3.9000    2.9520 c3        1 MOL     -0.413406
    108 C38         1.1150   -1.5190    3.0950 c3        1 MOL     -0.664933
    109 C39         2.7130   -3.8260    4.3130 c3        1 MOL     -0.226106
    110 H46        -0.1840   -4.4430    1.1620 hn        1 MOL      0.297857
    111 H47         1.0720   -1.8180    0.4340 h1        1 MOL      0.057829
    112 H48         2.8300   -2.2270    2.0650 hc        1 MOL      0.034270
    113 H49         2.7010   -4.4250    2.2520 hc        1 MOL      0.176402
    114 H50         1.1110   -4.3750    3.2240 hc        1 MOL      0.176402
    115 H51         0.9890   -0.6330    2.4630 hc        1 MOL      0.216952
    116 H52         0.1030   -1.8080    3.3890 hc        1 MOL      0.216952
    117 H53         1.7720   -1.1040    3.8470 hc        1 MOL      0.216952
    118 H54         3.5170   -3.0960    4.2500 hc        1 MOL      0.073950
    119 H55         1.9950   -3.4710    5.0530 hc        1 MOL      0.073950
    120 H56         2.9830   -4.8200    4.6790 hc        1 MOL      0.073950
    121 N11         2.9870   -3.0160   -0.6830 n         1 MOL     -0.100736
    122 C40         3.9890   -3.5500   -1.5230 c3        1 MOL     -0.022566
    123 C41         5.3150   -3.4800   -0.8160 c         1 MOL      0.586567
    124 O16         5.5090   -2.8130    0.1640 o         1 MOL     -0.499607
    125 C42         4.0590   -2.7250   -2.7950 c3        1 MOL     -0.171600
    126 O17         4.5810   -1.4690   -2.4340 oh        1 MOL     -0.524839
    127 H57         2.9320   -2.0150   -0.5540 hn        1 MOL      0.104628
    128 H58         3.7260   -4.5860   -1.7160 h1        1 MOL      0.058987
    129 H59         3.0460   -2.6540   -3.1840 h1        1 MOL      0.124676
    130 H60         4.6710   -3.2320   -3.5400 h1        1 MOL      0.124676
    131 H61         3.8370   -0.8600   -2.3640 ho        1 MOL      0.421530
    132 N12         6.3190   -4.2020   -1.3580 n         1 MOL     -0.521509
    133 C43         7.7220   -4.0840   -0.9270 c3        1 MOL      0.112193
    134 C44         8.2470   -2.6670   -0.9950 c         1 MOL      0.508998
    135 O18         9.0860   -2.3300   -0.1600 o         1 MOL     -0.520366
    136 C45         8.4600   -5.1580   -1.7730 c3        1 MOL     -0.404753
    137 H62         6.0920   -4.8000   -2.1360 hn        1 MOL      0.294968
    138 H63         7.7690   -4.3660    0.1200 h1        1 MOL      0.110784
    139 H64         8.3160   -5.0110   -2.8380 hc        1 MOL      0.126695
    140 H65         9.5060   -5.0800   -1.4870 hc        1 MOL      0.126695
    141 H66         8.2130   -6.1650   -1.4530 hc        1 MOL      0.126695
    142 N13         7.7100   -1.7900   -1.9050 n         1 MOL     -0.495955
    143 C46         8.0880   -0.3870   -2.0240 c3        1 MOL      0.288417
    144 C47         7.4660    0.5080   -0.9990 c         1 MOL      0.240832
    145 O19         8.1250    1.4720   -0.6170 o         1 MOL     -0.537740
    146 C48         7.7810    0.2160   -3.3840 c3        1 MOL     -0.382841
    147 H67         6.9610   -2.1400   -2.4830 hn        1 MOL      0.319604
    148 H68         9.1710   -0.2910   -1.8840 h1        1 MOL      0.074043
    149 H69         8.4770   -0.2600   -4.0800 hc        1 MOL      0.097746
    150 H70         6.7540   -0.0460   -3.6750 hc        1 MOL      0.097746
    151 H71         7.8550    1.2900   -3.2220 hc        1 MOL      0.097746
    152 N14         6.3240    0.2160   -0.4500 n         1 MOL      0.177680
    153 C49         5.6850    0.9270    0.6940 c3        1 MOL     -0.255086
    154 C50         6.3370    0.5690    2.0170 c         1 MOL      0.532966
    155 O20         6.3530    1.3500    2.9280 o         1 MOL     -0.549188
    156 C51         4.0890    0.6140    0.6800 c3        1 MOL      0.350555
    157 C52         3.2750    1.3930   -0.3430 c3        1 MOL     -0.124699
    158 C53         2.0380    0.6350   -0.6020 c         1 MOL      0.683921
    159 O21         2.1370   -0.3600   -1.3240 o         1 MOL     -0.680395
    160 O22         0.8400    1.0130   -0.2340 o         1 MOL     -0.680395
    161 H72         5.8860   -0.6210   -0.8140 hn        1 MOL     -0.055411
    162 H73         5.7530    2.0010    0.5170 h1        1 MOL      0.123163
    163 H74         3.6670    0.7480    1.6720 hc        1 MOL     -0.053457
    164 H75         3.9600   -0.4300    0.3840 hc        1 MOL     -0.053457
    165 H76         3.8560    1.3400   -1.2700 hc        1 MOL     -0.020584
    166 H77         3.0730    2.4150   -0.0410 hc        1 MOL     -0.020584
    167 N15         7.0260   -0.5640    2.2000 n         1 MOL     -0.202544
    168 C54         7.9680   -0.8170    3.3110 c3        1 MOL     -0.266568
    169 H78         7.9760    0.0410    3.9830 h1        1 MOL      0.117800
    170 H79         7.6530   -1.7050    3.8590 h1        1 MOL      0.117800
    171 H80         8.9700   -0.9730    2.9100 h1        1 MOL      0.117800
    172 H81         7.0100   -1.2170    1.4320 hn        1 MOL      0.190569
    173 Ca1        -1.4590    0.4960   -1.0890 Ca        1 MOL      1.827731
    174 O23        -0.3750    2.5670   -2.9830 oh        1 MOL     -0.850652
    175 H82         0.4980    2.9460   -2.8810 ho        1 MOL      0.407311
    176 H83        -0.6520    2.8320   -3.8540 ho        1 MOL      0.407311
    177 O24        -2.2260    0.5990   -3.9150 oh        1 MOL     -0.850652
    178 H84        -2.8250    1.3560   -3.8630 ho        1 MOL      0.407311
    179 H85        -2.4380    0.1890   -4.7520 ho        1 MOL      0.407311
    180 O25        -0.1300   -1.2030   -2.5530 oh        1 MOL     -0.850652
    181 H86         0.8070   -1.0100   -2.5670 ho        1 MOL      0.407311
    182 H87        -0.2250   -1.9860   -3.0930 ho        1 MOL      0.407311
@<TRIPOS>BOND
     1    1    2 1   
     2    1    4 1   
     3    1    5 1   
     4    1    6 1   
     5    2    3 2   
     6    2    7 1   
     7    7    8 1   
     8    7   15 1   
     9    8    9 1   
    10    8   11 1   
    11    8   16 1   
    12    9   10 2   
    13    9   19 1   
    14   11   12 1   
    15   11   17 1   
    16   11   18 1   
    17   12   13 1   
    18   12   14 1   
    19   19   20 1   
    20   19   28 1   
    21   20   21 1   
    22   20   23 1   
    23   20   29 1   
    24   21   22 2   
    25   21   41 1   
    26   23   24 1   
    27   23   30 1   
    28   23   31 1   
    29   24   25 1   
    30   24   32 1   
    31   24   33 1   
    32   25   26 1   
    33   25   34 1   
    34   25   35 1   
    35   26   27 1   
    36   26   36 1   
    37   26   37 1   
    38   27   38 1   
    39   27   39 1   
    40   27   40 1   
    41   41   42 1   
    42   41   49 1   
    43   42   43 1   
    44   42   45 1   
    45   42   50 1   
    46   43   44 2   
    47   43   53 1   
    48   45   46 1   
    49   45   51 1   
    50   45   52 1   
    51   46   47 1   
    52   46   48 1   
    53   53   54 1   
    54   53   57 1   
    55   54   55 1   
    56   54   58 1   
    57   54   59 1   
    58   55   56 2   
    59   55   60 1   
    60   60   61 1   
    61   60   68 1   
    62   61   62 1   
    63   61   64 1   
    64   61   69 1   
    65   62   63 2   
    66   62   74 1   
    67   64   65 1   
    68   64   70 1   
    69   64   71 1   
    70   65   66 1   
    71   65   67 2   
    72   66   72 1   
    73   66   73 1   
    74   74   75 1   
    75   74   78 1   
    76   75   76 1   
    77   75   79 1   
    78   75   80 1   
    79   76   77 2   
    80   76   81 1   
    81   81   82 1   
    82   81   93 1   
    83   82   83 1   
    84   82   85 1   
    85   82   94 1   
    86   83   84 2   
    87   83  102 1   
    88   85   86 1   
    89   85   95 1   
    90   85   96 1   
    91   86   87 ar  
    92   86   88 ar  
    93   87   89 ar  
    94   87   97 1   
    95   88   90 ar  
    96   88   98 1   
    97   89   91 ar  
    98   89   99 1   
    99   90   91 ar  
   100   90  100 1   
   101   91   92 1   
   102   92  101 1   
   103  102  103 1   
   104  102  110 1   
   105  103  104 1   
   106  103  106 1   
   107  103  111 1   
   108  104  105 2   
   109  104  121 1   
   110  106  107 1   
   111  106  108 1   
   112  106  112 1   
   113  107  109 1   
   114  107  113 1   
   115  107  114 1   
   116  108  115 1   
   117  108  116 1   
   118  108  117 1   
   119  109  118 1   
   120  109  119 1   
   121  109  120 1   
   122  121  122 1   
   123  121  127 1   
   124  122  123 1   
   125  122  125 1   
   126  122  128 1   
   127  123  124 2   
   128  123  132 1   
   129  125  126 1   
   130  125  129 1   
   131  125  130 1   
   132  126  131 1   
   133  132  133 1   
   134  132  137 1   
   135  133  134 1   
   136  133  136 1   
   137  133  138 1   
   138  134  135 2   
   139  134  142 1   
   140  136  139 1   
   141  136  140 1   
   142  136  141 1   
   143  142  143 1   
   144  142  147 1   
   145  143  144 1   
   146  143  146 1   
   147  143  148 1   
   148  144  145 2   
   149  144  152 1   
   150  146  149 1   
   151  146  150 1   
   152  146  151 1   
   153  152  153 1   
   154  152  161 1   
   155  153  154 1   
   156  153  156 1   
   157  153  162 1   
   158  154  155 2   
   159  154  167 1   
   160  156  157 1   
   161  156  163 1   
   162  156  164 1   
   163  157  158 1   
   164  157  165 1   
   165  157  166 1   
   166  158  159 1   
   167  158  160 1   
   168  167  168 1   
   169  167  172 1   
   170  168  169 1   
   171  168  170 1   
   172  168  171 1   
   173  174  175 1   
   174  174  176 1   
   175  177  178 1   
   176  177  179 1   
   177  180  181 1   
   178  180  182 1   
@<TRIPOS>SUBSTRUCTURE
     1 MOL         1 TEMP              0 ****  ****    0 ROOT
