@<TRIPOS>MOLECULE
MOL
  169   169     1     0     0
SMALL
resp


@<TRIPOS>ATOM
      1 C1          0.0020    3.5460    5.7360 c3        1 MOL     -0.386108
      2 C2         -0.4060    3.3920    4.2690 c         1 MOL      0.733816
      3 O1          0.2310    4.0790    3.4410 o         1 MOL     -0.608588
      4 H1         -0.8850    3.4780    6.3680 hc        1 MOL      0.093274
      5 H2          0.7000    2.7540    6.0050 hc        1 MOL      0.093274
      6 H3          0.4770    4.5150    5.8820 hc        1 MOL      0.093274
      7 N1         -1.3620    2.5430    3.9460 n         1 MOL     -0.631571
      8 C3         -2.0220    2.2070    2.6590 c3        1 MOL      0.299448
      9 C4         -2.4910    3.4830    1.9510 c         1 MOL      0.485015
     10 O2         -3.4650    4.0820    2.3670 o         1 MOL     -0.577456
     11 C5         -3.1270    1.0840    2.8450 c3        1 MOL     -0.413735
     12 C6         -3.8970    0.6810    1.5790 c         1 MOL      0.763100
     13 O3         -4.8380   -0.0800    1.7890 o         1 MOL     -0.646141
     14 O4         -3.4540    1.0710    0.4870 o         1 MOL     -0.646141
     15 H4         -1.7760    2.1050    4.7560 hn        1 MOL      0.304056
     16 H5         -1.2800    1.7450    2.0100 h1        1 MOL     -0.032507
     17 H6         -3.9090    1.4120    3.5380 hc        1 MOL      0.093617
     18 H7         -2.7060    0.1380    3.1950 hc        1 MOL      0.093617
     19 N2         -1.7880    3.8680    0.8760 n         1 MOL     -0.258975
     20 C7         -1.9940    5.1600    0.2070 c3        1 MOL     -0.092658
     21 C8         -3.0420    5.1050   -0.9240 c         1 MOL      0.472665
     22 O5         -3.4230    6.1780   -1.4490 o         1 MOL     -0.573444
     23 C9         -0.5760    5.6200   -0.2730 c3        1 MOL     -0.099050
     24 H8         -1.1380    3.1830    0.5270 hn        1 MOL      0.423915
     25 H9         -2.2980    5.9560    0.8820 h1        1 MOL      0.109889
     26 H10        -0.5570    6.4700   -0.9540 hc        1 MOL      0.031206
     27 H11         0.1170    5.9130    0.5190 hc        1 MOL      0.031206
     28 H12        -0.0460    4.7940   -0.7540 hc        1 MOL      0.031206
     29 N3         -3.5160    3.8850   -1.2830 n         1 MOL      0.014697
     30 C10        -4.5790    3.7130   -2.2780 c3        1 MOL     -0.001401
     31 C11        -5.8600    3.1050   -1.7220 c         1 MOL      0.425578
     32 O6         -6.9610    3.2250   -2.2270 o         1 MOL     -0.530358
     33 C12        -4.0790    2.9230   -3.4000 c3        1 MOL     -0.146635
     34 C13        -3.4200    1.6130   -3.0270 c         1 MOL      0.727293
     35 O7         -2.2060    1.5170   -3.0360 o         1 MOL     -0.739337
     36 O8         -4.1170    0.7260   -2.4650 o         1 MOL     -0.739337
     37 H13        -3.3720    3.1240   -0.6320 hn        1 MOL     -0.218661
     38 H14        -4.8530    4.6460   -2.7710 h1        1 MOL      0.080974
     39 H15        -3.3440    3.5080   -3.9740 hc        1 MOL      0.035084
     40 H16        -4.9570    2.6680   -3.9880 hc        1 MOL      0.035084
     41 N4         -5.8500    2.4220   -0.5690 n         1 MOL     -0.294705
     42 C14        -7.0830    1.8810    0.0610 c3        1 MOL     -0.192646
     43 C15        -7.5500    0.6430   -0.6390 c         1 MOL      0.576782
     44 O9         -8.7100    0.3390   -0.7920 o         1 MOL     -0.600957
     45 H17        -4.9260    2.0850   -0.3290 hn        1 MOL      0.356936
     46 H18        -7.8670    2.6360    0.0480 h1        1 MOL      0.101019
     47 H19        -6.8660    1.6270    1.0900 h1        1 MOL      0.101019
     48 N5         -6.5510   -0.1470   -1.1010 n         1 MOL     -0.192327
     49 C16        -6.7470   -1.5050   -1.6330 c3        1 MOL     -0.069005
     50 C17        -6.7420   -2.4920   -0.4890 c         1 MOL      0.393699
     51 O10        -6.9070   -3.7050   -0.7590 o         1 MOL     -0.556134
     52 C18        -5.8810   -1.8610   -2.8660 c3        1 MOL     -0.185051
     53 C19        -4.4540   -2.1030   -2.4860 c         1 MOL      0.735841
     54 N6         -3.6860   -2.2850   -3.5010 n         1 MOL     -0.772892
     55 O11        -3.9820   -1.9720   -1.3950 o         1 MOL     -0.670771
     56 H20        -5.6180    0.2550   -1.1340 hn        1 MOL      0.189362
     57 H21        -7.7250   -1.4330   -2.1020 h1        1 MOL      0.111158
     58 H22        -5.8420   -0.9920   -3.5210 hc        1 MOL      0.075414
     59 H23        -6.2630   -2.7290   -3.4030 hc        1 MOL      0.075414
     60 H24        -4.0670   -2.4420   -4.4260 hn        1 MOL      0.349445
     61 H25        -2.8940   -2.8520   -3.2800 hn        1 MOL      0.349445
     62 N7         -6.4510   -2.1300    0.7490 n         1 MOL     -0.152981
     63 C20        -6.4900   -2.9580    1.9070 c3        1 MOL     -0.237204
     64 C21        -5.1360   -3.6380    2.2270 c         1 MOL      0.581045
     65 O12        -5.0990   -4.4850    3.0760 o         1 MOL     -0.558545
     66 H26        -6.2760   -1.1560    0.9440 hn        1 MOL      0.200631
     67 H27        -7.3130   -3.6810    1.9040 h1        1 MOL      0.116277
     68 H28        -6.7430   -2.2840    2.7150 h1        1 MOL      0.116277
     69 N8         -4.0490   -3.3060    1.4420 n         1 MOL     -0.452122
     70 C22        -2.7570   -4.0420    1.3680 c3        1 MOL      0.088808
     71 C23        -1.5620   -3.1430    1.2370 c         1 MOL      0.636423
     72 O13        -1.6170   -2.1680    0.4470 o         1 MOL     -0.653453
     73 C24        -2.8400   -4.9690    0.2190 c3        1 MOL      0.443095
     74 C25        -1.5530   -5.7580   -0.0790 c3        1 MOL     -0.553733
     75 O14        -3.8990   -5.9420    0.3910 oh        1 MOL     -0.604447
     76 H29        -4.2580   -2.6250    0.7280 hn        1 MOL      0.240582
     77 H30        -2.7030   -4.5690    2.3230 h1        1 MOL      0.059317
     78 H31        -2.9720   -4.3540   -0.6750 h1        1 MOL      0.008649
     79 H32        -4.3590   -6.0850   -0.4380 ho        1 MOL      0.378338
     80 H33        -1.7270   -6.3940   -0.9440 hc        1 MOL      0.132821
     81 H34        -0.7270   -5.1120   -0.3630 hc        1 MOL      0.132821
     82 H35        -1.1860   -6.1830    0.8550 hc        1 MOL      0.132821
     83 N9         -0.4470   -3.4670    1.9300 n         1 MOL     -0.659981
     84 C26         0.8030   -2.8210    1.6410 c3        1 MOL      0.143532
     85 C27         1.5200   -3.2090    0.3420 c         1 MOL      0.494337
     86 O15         1.8560   -4.3310    0.1750 o         1 MOL     -0.588397
     87 C28         1.7600   -2.9650    2.8360 c3        1 MOL     -0.044654
     88 C29         1.2340   -2.2600    4.1270 c3        1 MOL      0.182884
     89 C30         3.1640   -2.4230    2.5080 c3        1 MOL     -0.010261
     90 C31         2.2090   -2.4540    5.2790 c3        1 MOL     -0.407866
     91 H36        -0.4090   -4.3520    2.4300 hn        1 MOL      0.330591
     92 H37         0.5780   -1.7670    1.4610 h1        1 MOL      0.134229
     93 H38         1.8360   -4.0410    2.9790 hc        1 MOL      0.024072
     94 H39         0.2890   -2.6640    4.4930 hc        1 MOL     -0.008378
     95 H40         0.9660   -1.2120    3.9720 hc        1 MOL     -0.008378
     96 H41         3.9270   -2.5940    3.2800 hc        1 MOL     -0.004859
     97 H42         3.5210   -2.9610    1.6230 hc        1 MOL     -0.004859
     98 H43         3.0070   -1.3710    2.3010 hc        1 MOL     -0.004859
     99 H44         2.9330   -1.6670    5.1050 hc        1 MOL      0.091768
    100 H45         1.7260   -2.1320    6.1980 hc        1 MOL      0.091768
    101 H46         2.7380   -3.4070    5.2540 hc        1 MOL      0.091768
    102 N10         1.7830   -2.2750   -0.5300 n         1 MOL     -0.153543
    103 C32         2.7520   -2.2380   -1.6770 c3        1 MOL      0.092326
    104 C33         4.0360   -1.5080   -1.1710 c         1 MOL      0.500228
    105 O16         3.9150   -0.6890   -0.3170 o         1 MOL     -0.311872
    106 C34         2.1610   -1.4690   -2.8280 c3        1 MOL     -0.038257
    107 C35         0.6780   -1.8440   -3.2590 c         1 MOL      0.635234
    108 O17         0.5520   -2.7570   -4.0910 o         1 MOL     -0.670193
    109 O18        -0.2900   -1.1240   -2.8780 o         1 MOL     -0.670193
    110 H47         1.3710   -1.3760   -0.3160 hn        1 MOL     -0.080237
    111 H48         2.9770   -3.2460   -2.0270 h1        1 MOL      0.029592
    112 H49         2.8450   -1.6050   -3.6710 hc        1 MOL     -0.008120
    113 H50         2.2040   -0.4240   -2.5120 hc        1 MOL     -0.008120
    114 N11         5.1810   -1.9360   -1.6720 n         1 MOL     -0.647630
    115 C36         6.4860   -1.4700   -1.3170 c3        1 MOL      0.349511
    116 C37         6.6880    0.1130   -0.9470 c         1 MOL      0.353001
    117 O19         7.2420    0.4010    0.1320 o         1 MOL     -0.457696
    118 C38         7.5840   -1.8840   -2.3010 c3        1 MOL     -0.202133
    119 C39         8.9660   -1.5700   -1.7680 ca        1 MOL      0.103903
    120 C40         9.3430   -2.0880   -0.4940 ca        1 MOL     -0.195970
    121 C41         9.8270   -0.6450   -2.3850 ca        1 MOL     -0.195970
    122 C42        10.5500   -1.6820    0.1030 ca        1 MOL     -0.102850
    123 C43        11.1280   -0.3290   -1.8440 ca        1 MOL     -0.102850
    124 C44        11.4970   -0.9120   -0.6120 ca        1 MOL     -0.116034
    125 H51         5.2160   -2.6150   -2.4120 hn        1 MOL      0.321816
    126 H52         6.7370   -1.9790   -0.3920 h1        1 MOL      0.037014
    127 H53         7.5720   -1.2570   -3.1870 hc        1 MOL      0.062594
    128 H54         7.6140   -2.9520   -2.5380 hc        1 MOL      0.062594
    129 H55         8.7130   -2.7960    0.0140 ha        1 MOL      0.126558
    130 H56         9.6200   -0.1710   -3.3330 ha        1 MOL      0.126558
    131 H57        10.7550   -2.0420    1.1080 ha        1 MOL      0.114937
    132 H58        11.7210    0.4230   -2.3290 ha        1 MOL      0.114937
    133 H59        12.4780   -0.7470   -0.2030 ha        1 MOL      0.099265
    134 N12         6.2360    1.0850   -1.7900 n         1 MOL     -0.150716
    135 C45         6.2120    2.4720   -1.3850 c3        1 MOL      0.057853
    136 C46         5.4550    2.8030   -0.0990 c         1 MOL      0.247797
    137 O20         5.7050    3.9200    0.4570 o         1 MOL     -0.521947
    138 C47         5.5620    3.2470   -2.5820 c3        1 MOL     -0.120508
    139 C48         4.7050    2.2380   -3.3870 c3        1 MOL     -0.033097
    140 C49         5.4650    0.9250   -3.0530 c3        1 MOL      0.005551
    141 H60         7.2200    2.8260   -1.2100 h1        1 MOL      0.074441
    142 H61         4.9830    4.0920   -2.2030 hc        1 MOL      0.057588
    143 H62         6.4410    3.5530   -3.1490 hc        1 MOL      0.057588
    144 H63         3.7190    2.2470   -2.9300 hc        1 MOL      0.053592
    145 H64         4.7590    2.4580   -4.4520 hc        1 MOL      0.053592
    146 H65         4.7260    0.1160   -3.0720 h1        1 MOL      0.012566
    147 H66         6.2770    0.7610   -3.7580 h1        1 MOL      0.012566
    148 N13         4.5480    1.9750    0.4180 n         1 MOL     -0.064607
    149 C50         3.8020    2.1510    1.6820 c3        1 MOL     -0.088100
    150 C51         4.5070    1.4450    2.8220 c         1 MOL      0.504525
    151 O21         4.4220    1.9600    3.9350 o         1 MOL     -0.572280
    152 C52         2.3660    1.5970    1.5920 c3        1 MOL      0.074405
    153 C53         1.5450    2.2510    0.5050 c3        1 MOL     -0.182944
    154 C54         0.4570    1.4330   -0.1180 c         1 MOL      0.781034
    155 O22         0.3720    0.1740   -0.0410 o         1 MOL     -0.746802
    156 O23        -0.5520    1.9410   -0.6060 o         1 MOL     -0.746802
    157 H67         4.1960    1.1890   -0.1230 hn        1 MOL      0.187182
    158 H68         3.7710    3.1900    2.0230 h1        1 MOL      0.108527
    159 H69         1.9300    1.6770    2.5850 hc        1 MOL      0.015736
    160 H70         2.3480    0.5220    1.4170 hc        1 MOL      0.015736
    161 H71         2.0670    2.6180   -0.3810 hc        1 MOL      0.047886
    162 H72         1.1210    3.1490    0.9580 hc        1 MOL      0.047886
    163 N14         5.3370    0.4540    2.5350 n         1 MOL     -0.128617
    164 C55         6.2320   -0.1400    3.6000 c3        1 MOL     -0.238815
    165 H73         7.1760   -0.4500    3.1490 h1        1 MOL      0.097696
    166 H74         6.4260    0.6060    4.3700 h1        1 MOL      0.097696
    167 H75         5.7420   -1.0060    4.0460 h1        1 MOL      0.097696
    168 H76         5.3840    0.1070    1.5900 hn        1 MOL      0.068304
    169 Ca1        -1.9700   -0.1610   -1.1790 Ca        1 MOL      1.741286
@<TRIPOS>BOND
     1    1    2 1   
     2    1    4 1   
     3    1    5 1   
     4    1    6 1   
     5    2    3 2   
     6    2    7 1   
     7    7    8 1   
     8    7   15 1   
     9    8    9 1   
    10    8   11 1   
    11    8   16 1   
    12    9   10 2   
    13    9   19 1   
    14   11   12 1   
    15   11   17 1   
    16   11   18 1   
    17   12   13 1   
    18   12   14 1   
    19   19   20 1   
    20   19   24 1   
    21   20   21 1   
    22   20   23 1   
    23   20   25 1   
    24   21   22 2   
    25   21   29 1   
    26   23   26 1   
    27   23   27 1   
    28   23   28 1   
    29   29   30 1   
    30   29   37 1   
    31   30   31 1   
    32   30   33 1   
    33   30   38 1   
    34   31   32 2   
    35   31   41 1   
    36   33   34 1   
    37   33   39 1   
    38   33   40 1   
    39   34   35 1   
    40   34   36 1   
    41   41   42 1   
    42   41   45 1   
    43   42   43 1   
    44   42   46 1   
    45   42   47 1   
    46   43   44 2   
    47   43   48 1   
    48   48   49 1   
    49   48   56 1   
    50   49   50 1   
    51   49   52 1   
    52   49   57 1   
    53   50   51 2   
    54   50   62 1   
    55   52   53 1   
    56   52   58 1   
    57   52   59 1   
    58   53   54 1   
    59   53   55 2   
    60   54   60 1   
    61   54   61 1   
    62   62   63 1   
    63   62   66 1   
    64   63   64 1   
    65   63   67 1   
    66   63   68 1   
    67   64   65 2   
    68   64   69 1   
    69   69   70 1   
    70   69   76 1   
    71   70   71 1   
    72   70   73 1   
    73   70   77 1   
    74   71   72 2   
    75   71   83 1   
    76   73   74 1   
    77   73   75 1   
    78   73   78 1   
    79   74   80 1   
    80   74   81 1   
    81   74   82 1   
    82   75   79 1   
    83   83   84 1   
    84   83   91 1   
    85   84   85 1   
    86   84   87 1   
    87   84   92 1   
    88   85   86 2   
    89   85  102 1   
    90   87   88 1   
    91   87   89 1   
    92   87   93 1   
    93   88   90 1   
    94   88   94 1   
    95   88   95 1   
    96   89   96 1   
    97   89   97 1   
    98   89   98 1   
    99   90   99 1   
   100   90  100 1   
   101   90  101 1   
   102  102  103 1   
   103  102  110 1   
   104  103  104 1   
   105  103  106 1   
   106  103  111 1   
   107  104  105 2   
   108  104  114 1   
   109  106  107 1   
   110  106  112 1   
   111  106  113 1   
   112  107  108 1   
   113  107  109 1   
   114  114  115 1   
   115  114  125 1   
   116  115  116 1   
   117  115  118 1   
   118  115  126 1   
   119  116  117 2   
   120  116  134 1   
   121  118  119 1   
   122  118  127 1   
   123  118  128 1   
   124  119  120 ar  
   125  119  121 ar  
   126  120  122 ar  
   127  120  129 1   
   128  121  123 ar  
   129  121  130 1   
   130  122  124 ar  
   131  122  131 1   
   132  123  124 ar  
   133  123  132 1   
   134  124  133 1   
   135  134  135 1   
   136  134  140 1   
   137  135  136 1   
   138  135  138 1   
   139  135  141 1   
   140  136  137 2   
   141  136  148 1   
   142  138  139 1   
   143  138  142 1   
   144  138  143 1   
   145  139  140 1   
   146  139  144 1   
   147  139  145 1   
   148  140  146 1   
   149  140  147 1   
   150  148  149 1   
   151  148  157 1   
   152  149  150 1   
   153  149  152 1   
   154  149  158 1   
   155  150  151 2   
   156  150  163 1   
   157  152  153 1   
   158  152  159 1   
   159  152  160 1   
   160  153  154 1   
   161  153  161 1   
   162  153  162 1   
   163  154  155 1   
   164  154  156 1   
   165  163  164 1   
   166  163  168 1   
   167  164  165 1   
   168  164  166 1   
   169  164  167 1   
@<TRIPOS>SUBSTRUCTURE
     1 MOL         1 TEMP              0 ****  ****    0 ROOT
