@<TRIPOS>MOLECULE
MOL
  189   185     1     0     0
SMALL
resp


@<TRIPOS>ATOM
      1 C1          0.1280    1.0810    6.2320 c3        1 MOL     -0.286899
      2 C2         -0.2580    1.3790    4.8080 c         1 MOL      0.749095
      3 O1          0.3470    2.2750    4.2060 o         1 MOL     -0.602932
      4 H1          0.5090    0.0620    6.2980 hc        1 MOL      0.063911
      5 H2          0.9020    1.7780    6.5520 hc        1 MOL      0.063911
      6 H3         -0.7450    1.1840    6.8750 hc        1 MOL      0.063911
      7 N1         -1.3020    0.6990    4.3310 n         1 MOL     -0.506546
      8 C3         -1.9240    0.7310    3.0110 c3        1 MOL      0.063700
      9 C4         -2.5060    2.0450    2.7540 c         1 MOL      0.609279
     10 O2         -3.3180    2.5550    3.5460 o         1 MOL     -0.575305
     11 C5         -2.9860   -0.3250    2.7800 c3        1 MOL     -0.420925
     12 C6         -3.7890   -0.1670    1.4790 c         1 MOL      0.820859
     13 O3         -3.0920    0.2640    0.5270 o         1 MOL     -0.667638
     14 O4         -5.0100   -0.3430    1.4620 o         1 MOL     -0.667638
     15 H4         -1.8260    0.1490    4.9940 hn        1 MOL      0.279761
     16 H5         -1.0510    0.5170    2.3940 h1        1 MOL      0.051663
     17 H6         -3.7200   -0.2790    3.5700 hc        1 MOL      0.108004
     18 H7         -2.4620   -1.2730    2.7420 hc        1 MOL      0.108004
     19 N2         -1.9560    2.7830    1.7750 n         1 MOL     -0.424883
     20 C7         -2.2060    4.2100    1.5140 c3        1 MOL     -0.046025
     21 C8         -3.3630    4.6070    0.6120 c         1 MOL      0.460353
     22 O5         -3.8700    5.7430    0.5730 o         1 MOL     -0.543596
     23 C9         -0.8820    4.8240    0.9040 c3        1 MOL      0.395296
     24 C10        -0.0860    5.9090    1.6980 c3        1 MOL     -0.177442
     25 C11        -0.8300    7.2680    1.7100 c3        1 MOL     -0.201390
     26 C12        -0.9880    7.8580    0.3170 c3        1 MOL      0.278370
     27 N3         -1.5920    9.1940    0.3650 n4        1 MOL     -0.559413
     28 H8         -1.2550    2.3650    1.1920 hn        1 MOL      0.266860
     29 H9         -2.3150    4.7720    2.4480 h1        1 MOL      0.074542
     30 H10        -0.9440    5.2150   -0.1140 hc        1 MOL     -0.047516
     31 H11        -0.2320    3.9700    0.7240 hc        1 MOL     -0.047516
     32 H12         0.8980    5.9640    1.2290 hc        1 MOL      0.077599
     33 H13         0.0480    5.4460    2.6740 hc        1 MOL      0.077599
     34 H14        -0.2920    7.9860    2.3170 hc        1 MOL      0.053712
     35 H15        -1.8820    7.1180    1.9590 hc        1 MOL      0.053712
     36 H16        -1.5580    7.1660   -0.2980 hx        1 MOL      0.003483
     37 H17         0.0100    7.9190   -0.1270 hx        1 MOL      0.003483
     38 H18        -1.7320    9.4370   -0.6090 hn        1 MOL      0.375403
     39 H19        -2.4990    9.1550    0.8160 hn        1 MOL      0.375403
     40 H20        -0.9690    9.8570    0.7990 hn        1 MOL      0.375403
     41 N4         -3.8330    3.5760   -0.1290 n         1 MOL     -0.256335
     42 C13        -4.8710    3.7540   -1.0840 c3        1 MOL     -0.086122
     43 C14        -6.2100    3.1770   -0.5330 c         1 MOL      0.512995
     44 O6         -7.3010    3.6860   -0.8570 o         1 MOL     -0.562888
     45 C15        -4.5030    2.8490   -2.3240 c3        1 MOL     -0.052225
     46 C16        -2.9970    2.7860   -2.6880 c         1 MOL      0.672849
     47 O7         -2.3970    3.8170   -3.0090 o         1 MOL     -0.667188
     48 O8         -2.4250    1.6760   -2.6100 o         1 MOL     -0.667188
     49 H21        -3.2690    2.7470   -0.2600 hn        1 MOL      0.231277
     50 H22        -4.9450    4.7840   -1.4380 h1        1 MOL      0.083602
     51 H23        -4.9990    3.1270   -3.2550 hc        1 MOL      0.020100
     52 H24        -4.7700    1.8110   -2.0960 hc        1 MOL      0.020100
     53 N5         -6.2500    2.0410    0.1920 n         1 MOL     -0.196141
     54 C17        -7.4670    1.3500    0.4890 c3        1 MOL     -0.219596
     55 C18        -7.7280    0.1530   -0.4600 c         1 MOL      0.556477
     56 O9         -8.8350   -0.4240   -0.4490 o         1 MOL     -0.595587
     57 H25        -5.4160    1.4770    0.3240 hn        1 MOL      0.122206
     58 H26        -8.3150    2.0080    0.3270 h1        1 MOL      0.128507
     59 H27        -7.5140    0.9690    1.5180 h1        1 MOL      0.128507
     60 N6         -6.7910   -0.1900   -1.3270 n         1 MOL     -0.225579
     61 C19        -6.8550   -1.3410   -2.2910 c3        1 MOL     -0.062719
     62 C20        -6.7230   -2.6890   -1.6220 c         1 MOL      0.427036
     63 O10        -6.8730   -3.7810   -2.2380 o         1 MOL     -0.572841
     64 C21        -5.7670   -1.1540   -3.3070 c3        1 MOL     -0.289455
     65 C22        -4.2980   -1.2870   -2.7640 c         1 MOL      0.757999
     66 O11        -3.9620   -1.8090   -1.6640 o         1 MOL     -0.756232
     67 O12        -3.4080   -0.9060   -3.5420 o         1 MOL     -0.756232
     68 H28        -5.8360    0.0980   -1.1320 hn        1 MOL      0.092165
     69 H29        -7.8160   -1.3140   -2.8130 h1        1 MOL      0.123859
     70 H30        -5.9130   -0.2140   -3.8410 hc        1 MOL      0.105120
     71 H31        -5.9810   -1.8700   -4.1010 hc        1 MOL      0.105120
     72 N7         -6.3430   -2.7170   -0.3710 n         1 MOL     -0.137258
     73 C23        -6.3740   -3.9410    0.4240 c3        1 MOL     -0.197582
     74 C24        -5.0720   -4.7810    0.4530 c         1 MOL      0.525153
     75 O13        -5.0090   -5.7950    1.0850 o         1 MOL     -0.564356
     76 H32        -6.1180   -1.8730    0.1290 hn        1 MOL      0.249434
     77 H33        -7.1290   -4.6340    0.0590 h1        1 MOL      0.101525
     78 H34        -6.6720   -3.7150    1.4520 h1        1 MOL      0.101525
     79 N8         -4.0150   -4.1190    0.0370 n         1 MOL     -0.214746
     80 C25        -2.6500   -4.6600    0.1200 c3        1 MOL      0.019085
     81 C26        -1.5600   -3.6190    0.3550 c         1 MOL      0.732919
     82 O14        -1.9130   -2.3890    0.3600 o         1 MOL     -0.736915
     83 C27        -2.3380   -5.4320   -1.1980 c3        1 MOL      0.173205
     84 C28        -3.0680   -6.6990   -1.5900 c3        1 MOL     -0.431528
     85 O15        -2.4090   -4.5880   -2.3610 oh        1 MOL     -0.600063
     86 H35        -4.0930   -3.1620   -0.2780 hn        1 MOL      0.225433
     87 H36        -2.5350   -5.3020    0.9930 h1        1 MOL      0.047114
     88 H37        -1.3090   -5.7670   -1.0530 h1        1 MOL      0.057814
     89 H38        -3.2970   -4.6190   -2.7190 ho        1 MOL      0.441600
     90 H39        -4.1280   -6.5050   -1.7320 hc        1 MOL      0.127555
     91 H40        -2.7030   -7.0560   -2.5580 hc        1 MOL      0.127555
     92 H41        -2.9530   -7.4610   -0.8280 hc        1 MOL      0.127555
     93 N9         -0.3510   -3.9940    0.7100 n         1 MOL     -0.656637
     94 C29         0.6960   -3.1650    1.2700 c3        1 MOL      0.032854
     95 C30         1.9900   -3.4980    0.5240 c         1 MOL      0.552730
     96 O16         2.5220   -4.5810    0.5360 o         1 MOL     -0.554363
     97 C31         0.9120   -3.3670    2.8350 c3        1 MOL      0.026643
     98 C32        -0.3890   -2.9820    3.6200 c3        1 MOL      0.195541
     99 C33         2.1980   -2.7220    3.4240 c3        1 MOL     -0.101928
    100 C34        -0.4910   -3.4950    5.0490 c3        1 MOL     -0.352955
    101 H42        -0.1680   -4.9890    0.7770 hn        1 MOL      0.322432
    102 H43         0.4440   -2.1040    1.1820 h1        1 MOL      0.198516
    103 H44         1.0470   -4.4440    2.9720 hc        1 MOL     -0.011349
    104 H45        -1.2520   -3.4290    3.1170 hc        1 MOL     -0.000647
    105 H46        -0.4140   -1.9010    3.6780 hc        1 MOL     -0.000647
    106 H47         1.9070   -1.6680    3.4330 hc        1 MOL      0.016186
    107 H48         2.4390   -2.9300    4.4710 hc        1 MOL      0.016186
    108 H49         3.1020   -2.8260    2.8230 hc        1 MOL      0.016186
    109 H50        -0.7990   -4.5430    5.0110 hc        1 MOL      0.081933
    110 H51         0.4040   -3.3810    5.6630 hc        1 MOL      0.081933
    111 H52        -1.3630   -3.0790    5.5350 hc        1 MOL      0.081933
    112 N10         2.4870   -2.5300   -0.2810 n         1 MOL     -0.414377
    113 C35         3.6910   -2.7720   -1.1520 c3        1 MOL      0.374803
    114 C36         4.9160   -2.5650   -0.2400 c         1 MOL      0.140272
    115 O17         4.7290   -1.9310    0.8220 o         1 MOL     -0.203834
    116 C37         3.8160   -1.8990   -2.4130 c3        1 MOL     -0.044888
    117 C38         2.7070   -2.2310   -3.4580 c3        1 MOL     -0.241731
    118 O18         3.7110   -0.5060   -2.0270 oh        1 MOL     -0.312084
    119 H53         1.9760   -1.6610   -0.3180 hn        1 MOL      0.246681
    120 H54         3.6650   -3.8030   -1.4730 h1        1 MOL      0.023555
    121 H55         4.7440   -2.1000   -2.9350 h1        1 MOL      0.040941
    122 H56         3.5590   -0.0220   -2.8500 ho        1 MOL      0.356584
    123 H57         1.7560   -2.2650   -2.9370 hc        1 MOL      0.062874
    124 H58         2.6580   -1.3840   -4.1510 hc        1 MOL      0.062874
    125 H59         3.0000   -3.1140   -4.0170 hc        1 MOL      0.062874
    126 N11         6.1560   -3.0450   -0.6260 n         1 MOL     -0.291787
    127 C39         7.3840   -2.6970    0.0960 c3        1 MOL      0.013331
    128 C40         7.6150   -1.1810    0.1900 c         1 MOL      0.186696
    129 O19         8.0750   -0.6930    1.2250 o         1 MOL     -0.424461
    130 C41         8.6330   -3.4640   -0.4540 c3        1 MOL      0.537237
    131 C42         9.7230   -3.5160    0.5860 c3        1 MOL     -0.404520
    132 O20         8.2720   -4.7840   -0.7370 oh        1 MOL     -0.659346
    133 H60         6.2260   -3.5600   -1.4880 hn        1 MOL      0.221320
    134 H61         7.2830   -2.9470    1.1580 h1        1 MOL      0.114838
    135 H62         8.9470   -3.0080   -1.3910 h1        1 MOL     -0.079307
    136 H63         8.9130   -5.2150   -1.3070 ho        1 MOL      0.405426
    137 H64        10.4990   -4.1280    0.1360 hc        1 MOL      0.102984
    138 H65        10.2090   -2.5570    0.7680 hc        1 MOL      0.102984
    139 H66         9.3020   -3.9420    1.4970 hc        1 MOL      0.102984
    140 N12         7.2150   -0.4330   -0.8620 n         1 MOL     -0.105599
    141 C43         7.3260    0.9930   -0.9760 c3        1 MOL     -0.099292
    142 C44         6.3820    1.6310    0.0310 c         1 MOL      0.366731
    143 O21         6.7840    2.6220    0.6800 o         1 MOL     -0.523241
    144 C45         6.9610    1.3930   -2.3960 c3        1 MOL     -0.050819
    145 C46         7.2070    2.9720   -2.5660 c3        1 MOL     -0.106470
    146 C47         6.8470    3.4820   -3.9690 c3        1 MOL      0.182768
    147 C48         7.3410    4.9270   -4.2740 c3        1 MOL     -0.067221
    148 N13         7.0180    5.3880   -5.6500 n4        1 MOL     -0.163817
    149 H67         6.9190   -0.9410   -1.6860 hn        1 MOL      0.146468
    150 H68         8.3570    1.2970   -0.8220 h1        1 MOL      0.125559
    151 H69         5.8980    1.2170   -2.5620 hc        1 MOL      0.016945
    152 H70         7.6010    0.8100   -3.0580 hc        1 MOL      0.016945
    153 H71         8.2770    3.2140   -2.5240 hc        1 MOL      0.053352
    154 H72         6.6320    3.5390   -1.8310 hc        1 MOL      0.053352
    155 H73         5.7620    3.4450   -4.0810 hc        1 MOL     -0.027115
    156 H74         7.3370    2.8670   -4.7230 hc        1 MOL     -0.027115
    157 H75         8.4210    4.8390   -4.2190 hx        1 MOL      0.093255
    158 H76         6.9090    5.6540   -3.5830 hx        1 MOL      0.093255
    159 H77         7.3090    6.3550   -5.7520 hn        1 MOL      0.255062
    160 H78         7.5580    4.8450   -6.2940 hn        1 MOL      0.255062
    161 H79         6.0600    5.3050   -5.9660 hn        1 MOL      0.255062
    162 N14         5.1520    1.1300    0.2400 n         1 MOL      0.022612
    163 C49         4.2330    1.7300    1.2110 c3        1 MOL     -0.160720
    164 C50         4.6910    1.4740    2.6270 c         1 MOL      0.538223
    165 O22         4.7830    2.3640    3.4400 o         1 MOL     -0.547744
    166 C51         2.8780    1.0200    1.0870 c3        1 MOL      0.430640
    167 C52         2.0620    1.6550   -0.0590 c3        1 MOL     -0.304503
    168 C53         0.7550    0.8930   -0.1070 c         1 MOL      0.865665
    169 O23         0.6220   -0.2970   -0.1190 o         1 MOL     -0.807823
    170 O24        -0.2870    1.5930   -0.2540 o         1 MOL     -0.807823
    171 H80         4.8180    0.4090   -0.3890 hn        1 MOL      0.061219
    172 H81         4.2620    2.8180    1.2650 h1        1 MOL      0.068943
    173 H82         2.4120    1.2140    2.0590 hc        1 MOL     -0.126356
    174 H83         3.0750   -0.0420    0.9450 hc        1 MOL     -0.126356
    175 H84         2.6130    1.4440   -0.9740 hc        1 MOL      0.011262
    176 H85         1.9820    2.7270    0.1020 hc        1 MOL      0.011262
    177 N15         5.1090    0.2320    2.8920 n         1 MOL     -0.142802
    178 C54         5.6450   -0.1920    4.2400 c3        1 MOL     -0.365224
    179 H86         5.9330   -1.2430    4.2020 h1        1 MOL      0.137133
    180 H87         6.5160    0.4130    4.4910 h1        1 MOL      0.137133
    181 H88         4.8750   -0.0530    4.9970 h1        1 MOL      0.137133
    182 H89         4.9590   -0.5070    2.2160 hn        1 MOL      0.104312
    183 Ca1        -1.6520   -0.4930   -1.4390 Ca        1 MOL      1.775922
    184 O25        -0.0900    0.1470   -3.8380 oh        1 MOL     -0.788773
    185 H90        -0.9070    0.5940   -4.0650 ho        1 MOL      0.380146
    186 H91        -0.0030   -0.5510   -4.4900 ho        1 MOL      0.380146
    187 O26        -0.9370   -2.5190   -3.0570 oh        1 MOL     -0.788773
    188 H92        -0.4170   -2.5930   -3.8550 ho        1 MOL      0.380146
    189 H93        -1.3000   -3.3910   -2.9200 ho        1 MOL      0.380146
@<TRIPOS>BOND
     1    1    2 1   
     2    1    4 1   
     3    1    5 1   
     4    1    6 1   
     5    2    3 2   
     6    2    7 1   
     7    7    8 1   
     8    7   15 1   
     9    8    9 1   
    10    8   11 1   
    11    8   16 1   
    12    9   10 2   
    13    9   19 1   
    14   11   12 1   
    15   11   17 1   
    16   11   18 1   
    17   12   13 1   
    18   12   14 1   
    19   19   20 1   
    20   19   28 1   
    21   20   21 1   
    22   20   23 1   
    23   20   29 1   
    24   21   22 2   
    25   21   41 1   
    26   23   24 1   
    27   23   30 1   
    28   23   31 1   
    29   24   25 1   
    30   24   32 1   
    31   24   33 1   
    32   25   26 1   
    33   25   34 1   
    34   25   35 1   
    35   26   27 1   
    36   26   36 1   
    37   26   37 1   
    38   27   38 1   
    39   27   39 1   
    40   27   40 1   
    41   41   42 1   
    42   41   49 1   
    43   42   43 1   
    44   42   45 1   
    45   42   50 1   
    46   43   44 2   
    47   43   53 1   
    48   45   46 1   
    49   45   51 1   
    50   45   52 1   
    51   46   47 1   
    52   46   48 1   
    53   53   54 1   
    54   53   57 1   
    55   54   55 1   
    56   54   58 1   
    57   54   59 1   
    58   55   56 2   
    59   55   60 1   
    60   60   61 1   
    61   60   68 1   
    62   61   62 1   
    63   61   64 1   
    64   61   69 1   
    65   62   63 2   
    66   62   72 1   
    67   64   65 1   
    68   64   70 1   
    69   64   71 1   
    70   65   66 1   
    71   65   67 1   
    72   72   73 1   
    73   72   76 1   
    74   73   74 1   
    75   73   77 1   
    76   73   78 1   
    77   74   75 2   
    78   74   79 1   
    79   79   80 1   
    80   79   86 1   
    81   80   81 1   
    82   80   83 1   
    83   80   87 1   
    84   81   82 2   
    85   81   93 1   
    86   83   84 1   
    87   83   85 1   
    88   83   88 1   
    89   84   90 1   
    90   84   91 1   
    91   84   92 1   
    92   85   89 1   
    93   93   94 1   
    94   93  101 1   
    95   94   95 1   
    96   94   97 1   
    97   94  102 1   
    98   95   96 2   
    99   95  112 1   
   100   97   98 1   
   101   97   99 1   
   102   97  103 1   
   103   98  100 1   
   104   98  104 1   
   105   98  105 1   
   106   99  106 1   
   107   99  107 1   
   108   99  108 1   
   109  100  109 1   
   110  100  110 1   
   111  100  111 1   
   112  112  113 1   
   113  112  119 1   
   114  113  114 1   
   115  113  116 1   
   116  113  120 1   
   117  114  115 2   
   118  114  126 1   
   119  116  117 1   
   120  116  118 1   
   121  116  121 1   
   122  117  123 1   
   123  117  124 1   
   124  117  125 1   
   125  118  122 1   
   126  126  127 1   
   127  126  133 1   
   128  127  128 1   
   129  127  130 1   
   130  127  134 1   
   131  128  129 2   
   132  128  140 1   
   133  130  131 1   
   134  130  132 1   
   135  130  135 1   
   136  131  137 1   
   137  131  138 1   
   138  131  139 1   
   139  132  136 1   
   140  140  141 1   
   141  140  149 1   
   142  141  142 1   
   143  141  144 1   
   144  141  150 1   
   145  142  143 2   
   146  142  162 1   
   147  144  145 1   
   148  144  151 1   
   149  144  152 1   
   150  145  146 1   
   151  145  153 1   
   152  145  154 1   
   153  146  147 1   
   154  146  155 1   
   155  146  156 1   
   156  147  148 1   
   157  147  157 1   
   158  147  158 1   
   159  148  159 1   
   160  148  160 1   
   161  148  161 1   
   162  162  163 1   
   163  162  171 1   
   164  163  164 1   
   165  163  166 1   
   166  163  172 1   
   167  164  165 2   
   168  164  177 1   
   169  166  167 1   
   170  166  173 1   
   171  166  174 1   
   172  167  168 1   
   173  167  175 1   
   174  167  176 1   
   175  168  169 1   
   176  168  170 1   
   177  177  178 1   
   178  177  182 1   
   179  178  179 1   
   180  178  180 1   
   181  178  181 1   
   182  184  185 1   
   183  184  186 1   
   184  187  188 1   
   185  187  189 1   
@<TRIPOS>SUBSTRUCTURE
     1 MOL         1 TEMP              0 ****  ****    0 ROOT
