@<TRIPOS>MOLECULE
MOL
  189   185     1     0     0
SMALL
resp


@<TRIPOS>ATOM
      1 C1          0.0890    3.0360   -5.2400 c3        1 MOL     -0.318774
      2 C2          0.5320    2.8240   -3.7310 c         1 MOL      0.573720
      3 O1         -0.1900    3.1050   -2.7720 o         1 MOL     -0.647226
      4 H1         -0.6440    3.8410   -5.2930 hc        1 MOL      0.091648
      5 H2          0.9600    3.2980   -5.8410 hc        1 MOL      0.091648
      6 H3         -0.3530    2.1160   -5.6220 hc        1 MOL      0.091648
      7 N1          1.7070    2.1840   -3.5130 n         1 MOL     -0.450727
      8 C3          2.2320    1.7990   -2.2310 c3        1 MOL      0.238392
      9 C4          2.7910    3.0390   -1.6300 c         1 MOL      0.288853
     10 O2          3.6160    3.8170   -2.1940 o         1 MOL     -0.533433
     11 C5          3.3670    0.7520   -2.4530 c3        1 MOL     -0.455623
     12 C6          4.1390    0.4130   -1.2090 c         1 MOL      0.867846
     13 O3          5.1280   -0.3260   -1.4010 o         1 MOL     -0.680463
     14 O4          3.7360    0.6850   -0.0920 o         1 MOL     -0.680463
     15 H4          2.2840    2.0340   -4.3290 hn        1 MOL      0.299354
     16 H5          1.4530    1.4010   -1.5800 h1        1 MOL      0.055011
     17 H6          4.0460    1.1520   -3.2110 hc        1 MOL      0.106048
     18 H7          2.8680   -0.1590   -2.7680 hc        1 MOL      0.106048
     19 N2          2.1140    3.4400   -0.5350 n         1 MOL     -0.051563
     20 C7          2.3540    4.7460    0.0400 c3        1 MOL      0.012721
     21 C8          3.5590    4.6990    1.0430 c         1 MOL      0.342489
     22 O5          4.4850    5.4890    1.0040 o         1 MOL     -0.533439
     23 C9          1.1490    5.2730    0.7690 c3        1 MOL      0.036363
     24 C10         0.5080    6.5140   -0.0020 c3        1 MOL      0.007679
     25 C11        -0.1260    6.1350   -1.3600 c3        1 MOL      0.103553
     26 C12        -1.0260    7.2750   -1.8420 c3        1 MOL     -0.019245
     27 N3         -1.1890    7.3090   -3.3500 n4        1 MOL     -0.367634
     28 H8          1.3680    2.8540   -0.1960 hn        1 MOL      0.137752
     29 H9          2.6930    5.4940   -0.6710 h1        1 MOL      0.058358
     30 H10         1.2960    5.5390    1.8150 hc        1 MOL      0.018406
     31 H11         0.3990    4.4840    0.8150 hc        1 MOL      0.018406
     32 H12         1.3200    7.1650   -0.3250 hc        1 MOL     -0.022152
     33 H13        -0.2140    7.0450    0.6290 hc        1 MOL     -0.022152
     34 H14        -0.6530    5.1980   -1.2400 hc        1 MOL      0.032311
     35 H15         0.7200    6.0240   -2.0430 hc        1 MOL      0.032311
     36 H16        -0.5320    8.2040   -1.5550 hx        1 MOL      0.087426
     37 H17        -1.9850    7.2980   -1.3260 hx        1 MOL      0.087426
     38 H18        -0.3180    7.4400   -3.8540 hn        1 MOL      0.324285
     39 H19        -1.6060    6.4750   -3.7320 hn        1 MOL      0.324285
     40 H20        -1.7820    8.0870   -3.6110 hn        1 MOL      0.324285
     41 N4          3.5150    3.7160    1.9250 n         1 MOL     -0.117999
     42 C13         4.5270    3.4700    2.9400 c3        1 MOL     -0.096805
     43 C14         5.6780    2.6200    2.4370 c         1 MOL      0.449981
     44 O6          6.6410    2.2690    3.1350 o         1 MOL     -0.527505
     45 C15         3.8200    2.8710    4.2250 c3        1 MOL     -0.250460
     46 C16         2.8300    1.7740    4.0390 c         1 MOL      0.835436
     47 O7          1.9250    1.6470    4.8930 o         1 MOL     -0.710213
     48 O8          2.9120    0.9900    3.0880 o         1 MOL     -0.710213
     49 H21         2.8100    2.9980    1.8160 hn        1 MOL      0.084488
     50 H22         4.9330    4.4590    3.1820 h1        1 MOL      0.124511
     51 H23         3.1600    3.6260    4.6540 hc        1 MOL      0.064209
     52 H24         4.5630    2.5830    4.9680 hc        1 MOL      0.064209
     53 N5          5.6190    2.2090    1.1690 n         1 MOL     -0.187869
     54 C17         6.7630    1.6280    0.4130 c3        1 MOL     -0.325849
     55 C18         7.3430    0.2630    0.8700 c         1 MOL      0.584796
     56 O9          8.5710    0.0350    0.7790 o         1 MOL     -0.584303
     57 H25         4.7890    2.2350    0.5970 hn        1 MOL      0.264772
     58 H26         7.6360    2.2690    0.5600 h1        1 MOL      0.130742
     59 H27         6.4430    1.5550   -0.6250 h1        1 MOL      0.130742
     60 N6          6.5450   -0.6030    1.5360 n         1 MOL     -0.155666
     61 C19         6.7190   -1.9860    1.9590 c3        1 MOL     -0.149717
     62 C20         6.8420   -2.9260    0.7380 c         1 MOL      0.457689
     63 O10         7.0730   -4.1300    0.8710 o         1 MOL     -0.535922
     64 C21         5.5710   -2.4280    2.8930 c3        1 MOL     -0.192360
     65 C22         4.1670   -2.2140    2.2830 c         1 MOL      0.675746
     66 O11         4.0040   -2.2240    1.0600 o         1 MOL     -0.701555
     67 O12         3.1140   -2.2370    2.9840 o         1 MOL     -0.701555
     68 H28         5.5580   -0.3990    1.5180 hn        1 MOL      0.120379
     69 H29         7.6330   -1.9160    2.5340 h1        1 MOL      0.140661
     70 H30         5.6800   -1.8470    3.8100 hc        1 MOL      0.092964
     71 H31         5.6650   -3.4890    3.0920 hc        1 MOL      0.092964
     72 N7          6.6920   -2.4900   -0.5400 n         1 MOL     -0.192356
     73 C23         6.7930   -3.3720   -1.7130 c3        1 MOL     -0.348758
     74 C24         5.4870   -4.1140   -2.0790 c         1 MOL      0.572056
     75 O13         5.5450   -5.0530   -2.9050 o         1 MOL     -0.574964
     76 H32         6.3050   -1.5580   -0.5990 hn        1 MOL      0.219435
     77 H33         7.6510   -4.0290   -1.5770 h1        1 MOL      0.156532
     78 H34         6.8780   -2.7420   -2.5950 h1        1 MOL      0.156532
     79 N8          4.3580   -3.6630   -1.5280 n         1 MOL     -0.211751
     80 C25         3.0210   -4.3120   -1.6900 c3        1 MOL     -0.253788
     81 C26         1.8720   -3.2050   -1.6520 c         1 MOL      0.596577
     82 O14         2.0480   -2.1290   -1.0000 o         1 MOL     -0.634205
     83 C27         2.7750   -5.2480   -0.4920 c3        1 MOL      0.306071
     84 C28         3.8040   -6.3210   -0.2880 c3        1 MOL     -0.357274
     85 O15         2.7400   -4.6130    0.7520 oh        1 MOL     -0.590904
     86 H35         4.4080   -2.8890   -0.8940 hn        1 MOL      0.214135
     87 H36         3.0510   -4.8200   -2.6620 h1        1 MOL      0.124525
     88 H37         1.7870   -5.6820   -0.6030 h1        1 MOL      0.019140
     89 H38         3.1940   -3.7770    0.6460 ho        1 MOL      0.525743
     90 H39         3.6290   -6.9690    0.5730 hc        1 MOL      0.100821
     91 H40         3.8640   -6.9840   -1.1450 hc        1 MOL      0.100821
     92 H41         4.7510   -5.7910   -0.1420 hc        1 MOL      0.100821
     93 N9          0.6530   -3.5820   -2.0640 n         1 MOL     -0.520462
     94 C29        -0.6180   -2.7520   -2.0760 c3        1 MOL      0.145587
     95 C30        -1.7690   -3.3140   -1.2190 c         1 MOL      0.353930
     96 O16        -1.9490   -4.5050   -1.2180 o         1 MOL     -0.518508
     97 C31        -1.0300   -2.2270   -3.5110 c3        1 MOL      0.098476
     98 C32         0.1990   -1.9650   -4.4120 c3        1 MOL      0.279870
     99 C33        -1.7910   -0.8520   -3.4790 c3        1 MOL     -0.814597
    100 C34        -0.2970   -1.9540   -5.9540 c3        1 MOL     -0.157858
    101 H42         0.5540   -4.5690   -2.2360 hn        1 MOL      0.283538
    102 H43        -0.3620   -1.8680   -1.4940 h1        1 MOL      0.047378
    103 H44        -1.7540   -2.9080   -3.9480 hc        1 MOL     -0.004614
    104 H45         0.8280   -2.8560   -4.3640 hc        1 MOL     -0.049788
    105 H46         0.7400   -1.0720   -4.1060 hc        1 MOL     -0.049788
    106 H47        -2.3230   -0.5390   -4.3800 hc        1 MOL      0.188447
    107 H48        -2.6410   -0.9280   -2.7950 hc        1 MOL      0.188447
    108 H49        -1.1090   -0.0430   -3.2220 hc        1 MOL      0.188447
    109 H50         0.5350   -1.6080   -6.5580 hc        1 MOL      0.029173
    110 H51        -0.4160   -2.9930   -6.2690 hc        1 MOL      0.029173
    111 H52        -1.1450   -1.2880   -6.1450 hc        1 MOL      0.029173
    112 N10        -2.4790   -2.4920   -0.4330 n         1 MOL     -0.011657
    113 C35        -3.7290   -2.8480    0.2230 c3        1 MOL     -0.042105
    114 C36        -4.9780   -2.3520   -0.5700 c         1 MOL      0.343270
    115 O17        -4.9220   -1.5260   -1.4650 o         1 MOL     -0.373118
    116 C37        -3.7300   -2.3150    1.6860 c3        1 MOL      0.015920
    117 C38        -2.4740   -2.5550    2.4380 c3        1 MOL     -0.452203
    118 O18        -3.9510   -0.9650    1.8100 oh        1 MOL     -0.405789
    119 H53        -2.2090   -1.5260   -0.2950 hn        1 MOL      0.342629
    120 H54        -3.7250   -3.9350    0.1230 h1        1 MOL      0.073068
    121 H55        -4.3460   -2.8840    2.3820 h1        1 MOL      0.053702
    122 H56        -3.5560   -0.6120    2.6050 ho        1 MOL      0.394903
    123 H57        -2.1650   -3.5770    2.2420 hc        1 MOL      0.130375
    124 H58        -1.6430   -1.9100    2.1250 hc        1 MOL      0.130375
    125 H59        -2.6660   -2.2610    3.4700 hc        1 MOL      0.130375
    126 N11        -6.2320   -2.6860   -0.0780 n         1 MOL     -0.179452
    127 C39        -7.4020   -2.0650   -0.5820 c3        1 MOL     -0.241922
    128 C40        -7.6180   -0.6340   -0.1830 c         1 MOL      0.455990
    129 O19        -8.2080    0.1140   -0.9950 o         1 MOL     -0.526331
    130 C41        -8.7140   -2.8310   -0.2750 c3        1 MOL      0.378937
    131 C42        -8.7240   -4.2390   -0.9650 c3        1 MOL     -0.498291
    132 O20        -8.9680   -3.0120    1.0750 oh        1 MOL     -0.668745
    133 H60        -6.3130   -3.4410    0.5820 hn        1 MOL      0.215280
    134 H61        -7.3690   -2.0620   -1.6680 h1        1 MOL      0.154658
    135 H62        -9.5650   -2.2500   -0.6180 h1        1 MOL      0.031879
    136 H63        -9.6520   -3.6820    1.1300 ho        1 MOL      0.420203
    137 H64        -8.0840   -4.9680   -0.4680 hc        1 MOL      0.132933
    138 H65        -9.7500   -4.6030   -0.9640 hc        1 MOL      0.132933
    139 H66        -8.3390   -4.0490   -1.9740 hc        1 MOL      0.132933
    140 N12        -6.8940   -0.1730    0.8040 n         1 MOL     -0.240392
    141 C43        -6.8710    1.2310    1.2330 c3        1 MOL      0.014743
    142 C44        -5.9650    2.0140    0.2780 c         1 MOL      0.338386
    143 O21        -6.3060    3.0980   -0.1360 o         1 MOL     -0.503739
    144 C45        -6.2550    1.3670    2.6830 c3        1 MOL     -0.079383
    145 C46        -6.8980    0.4300    3.6470 c3        1 MOL     -0.051358
    146 C47        -6.5820    0.6500    5.1130 c3        1 MOL     -0.013392
    147 C48        -7.3390   -0.3430    5.9590 c3        1 MOL      0.018733
    148 N13        -8.8180   -0.1800    6.0830 n4        1 MOL     -0.218988
    149 H67        -6.4940   -0.8870    1.3930 hn        1 MOL      0.177277
    150 H68        -7.8530    1.6890    1.0860 h1        1 MOL      0.104953
    151 H69        -6.4940    2.4000    2.9600 hc        1 MOL      0.037037
    152 H70        -5.1680    1.2500    2.7260 hc        1 MOL      0.037037
    153 H71        -6.6680   -0.6160    3.4450 hc        1 MOL      0.018253
    154 H72        -7.9640    0.5520    3.4410 hc        1 MOL      0.018253
    155 H73        -6.9860    1.6160    5.3920 hc        1 MOL      0.056469
    156 H74        -5.5420    0.6910    5.4180 hc        1 MOL      0.056469
    157 H75        -6.9440   -0.3980    6.9780 hx        1 MOL      0.077110
    158 H76        -7.1510   -1.3250    5.5320 hx        1 MOL      0.077110
    159 H77        -9.1390    0.6570    6.5490 hn        1 MOL      0.265121
    160 H78        -9.3020   -0.2450    5.1960 hn        1 MOL      0.265121
    161 H79        -9.1870   -0.9680    6.6000 hn        1 MOL      0.265121
    162 N14        -4.8720    1.4440   -0.1530 n         1 MOL     -0.003862
    163 C49        -4.0130    2.0080   -1.1640 c3        1 MOL     -0.231360
    164 C50        -4.5620    1.9450   -2.6330 c         1 MOL      0.452263
    165 O22        -4.2740    2.8150   -3.4310 o         1 MOL     -0.531549
    166 C51        -2.6010    1.3860   -1.1000 c3        1 MOL      0.086833
    167 C52        -1.8090    1.8460    0.1920 c3        1 MOL     -0.215672
    168 C53        -0.5520    1.0710    0.4210 c         1 MOL      0.657631
    169 O23        -0.5080   -0.1240    0.1310 o         1 MOL     -0.720554
    170 O24         0.4320    1.6470    0.9970 o         1 MOL     -0.720554
    171 H80        -4.5100    0.6170    0.3100 hn        1 MOL      0.137135
    172 H81        -3.7910    3.0570   -0.9650 h1        1 MOL      0.106420
    173 H82        -1.9270    1.6030   -1.9300 hc        1 MOL      0.090412
    174 H83        -2.6930    0.3040   -1.0580 hc        1 MOL      0.090412
    175 H84        -2.4590    1.5820    1.0280 hc        1 MOL      0.017201
    176 H85        -1.7350    2.9250    0.3000 hc        1 MOL      0.017201
    177 N15        -5.4680    0.9490   -2.9040 n         1 MOL     -0.052766
    178 C54        -6.1780    0.9280   -4.1890 c3        1 MOL     -0.527710
    179 H86        -6.2140    1.9370   -4.6000 h1        1 MOL      0.170697
    180 H87        -5.6540    0.2720   -4.8830 h1        1 MOL      0.170697
    181 H88        -7.1930    0.5610   -4.0370 h1        1 MOL      0.170697
    182 H89        -5.6630    0.2970   -2.1580 hn        1 MOL      0.143171
    183 Ca1         1.9500   -0.4770    1.2630 Ca        1 MOL      1.707842
    184 O25         0.2520   -0.3110    3.5800 oh        1 MOL     -0.782852
    185 H90         0.6790    0.3160    4.1590 ho        1 MOL      0.360880
    186 H91        -0.6540   -0.3460    3.9010 ho        1 MOL      0.360880
    187 O26         0.6660   -2.8170    1.6490 oh        1 MOL     -0.782852
    188 H92        -0.1750   -3.2300    1.8490 ho        1 MOL      0.360880
    189 H93         1.2950   -3.5410    1.6420 ho        1 MOL      0.360880
@<TRIPOS>BOND
     1    1    2 1   
     2    1    4 1   
     3    1    5 1   
     4    1    6 1   
     5    2    3 2   
     6    2    7 1   
     7    7    8 1   
     8    7   15 1   
     9    8    9 1   
    10    8   11 1   
    11    8   16 1   
    12    9   10 2   
    13    9   19 1   
    14   11   12 1   
    15   11   17 1   
    16   11   18 1   
    17   12   13 1   
    18   12   14 1   
    19   19   20 1   
    20   19   28 1   
    21   20   21 1   
    22   20   23 1   
    23   20   29 1   
    24   21   22 2   
    25   21   41 1   
    26   23   24 1   
    27   23   30 1   
    28   23   31 1   
    29   24   25 1   
    30   24   32 1   
    31   24   33 1   
    32   25   26 1   
    33   25   34 1   
    34   25   35 1   
    35   26   27 1   
    36   26   36 1   
    37   26   37 1   
    38   27   38 1   
    39   27   39 1   
    40   27   40 1   
    41   41   42 1   
    42   41   49 1   
    43   42   43 1   
    44   42   45 1   
    45   42   50 1   
    46   43   44 2   
    47   43   53 1   
    48   45   46 1   
    49   45   51 1   
    50   45   52 1   
    51   46   47 1   
    52   46   48 1   
    53   53   54 1   
    54   53   57 1   
    55   54   55 1   
    56   54   58 1   
    57   54   59 1   
    58   55   56 2   
    59   55   60 1   
    60   60   61 1   
    61   60   68 1   
    62   61   62 1   
    63   61   64 1   
    64   61   69 1   
    65   62   63 2   
    66   62   72 1   
    67   64   65 1   
    68   64   70 1   
    69   64   71 1   
    70   65   66 1   
    71   65   67 1   
    72   72   73 1   
    73   72   76 1   
    74   73   74 1   
    75   73   77 1   
    76   73   78 1   
    77   74   75 2   
    78   74   79 1   
    79   79   80 1   
    80   79   86 1   
    81   80   81 1   
    82   80   83 1   
    83   80   87 1   
    84   81   82 2   
    85   81   93 1   
    86   83   84 1   
    87   83   85 1   
    88   83   88 1   
    89   84   90 1   
    90   84   91 1   
    91   84   92 1   
    92   85   89 1   
    93   93   94 1   
    94   93  101 1   
    95   94   95 1   
    96   94   97 1   
    97   94  102 1   
    98   95   96 2   
    99   95  112 1   
   100   97   98 1   
   101   97   99 1   
   102   97  103 1   
   103   98  100 1   
   104   98  104 1   
   105   98  105 1   
   106   99  106 1   
   107   99  107 1   
   108   99  108 1   
   109  100  109 1   
   110  100  110 1   
   111  100  111 1   
   112  112  113 1   
   113  112  119 1   
   114  113  114 1   
   115  113  116 1   
   116  113  120 1   
   117  114  115 2   
   118  114  126 1   
   119  116  117 1   
   120  116  118 1   
   121  116  121 1   
   122  117  123 1   
   123  117  124 1   
   124  117  125 1   
   125  118  122 1   
   126  126  127 1   
   127  126  133 1   
   128  127  128 1   
   129  127  130 1   
   130  127  134 1   
   131  128  129 2   
   132  128  140 1   
   133  130  131 1   
   134  130  132 1   
   135  130  135 1   
   136  131  137 1   
   137  131  138 1   
   138  131  139 1   
   139  132  136 1   
   140  140  141 1   
   141  140  149 1   
   142  141  142 1   
   143  141  144 1   
   144  141  150 1   
   145  142  143 2   
   146  142  162 1   
   147  144  145 1   
   148  144  151 1   
   149  144  152 1   
   150  145  146 1   
   151  145  153 1   
   152  145  154 1   
   153  146  147 1   
   154  146  155 1   
   155  146  156 1   
   156  147  148 1   
   157  147  157 1   
   158  147  158 1   
   159  148  159 1   
   160  148  160 1   
   161  148  161 1   
   162  162  163 1   
   163  162  171 1   
   164  163  164 1   
   165  163  166 1   
   166  163  172 1   
   167  164  165 2   
   168  164  177 1   
   169  166  167 1   
   170  166  173 1   
   171  166  174 1   
   172  167  168 1   
   173  167  175 1   
   174  167  176 1   
   175  168  169 1   
   176  168  170 1   
   177  177  178 1   
   178  177  182 1   
   179  178  179 1   
   180  178  180 1   
   181  178  181 1   
   182  184  185 1   
   183  184  186 1   
   184  187  188 1   
   185  187  189 1   
@<TRIPOS>SUBSTRUCTURE
     1 MOL         1 TEMP              0 ****  ****    0 ROOT
