@<TRIPOS>MOLECULE
MOL
  186   183     1     0     0
SMALL
resp


@<TRIPOS>ATOM
      1 C1          0.8090   -1.9810    6.3100 c3        1 MOL     -0.337354
      2 C2          1.0860   -2.0520    4.8130 c         1 MOL      0.785013
      3 O1          0.2570   -2.6910    4.1080 o         1 MOL     -0.625363
      4 H1          1.2630   -1.0790    6.7200 hc        1 MOL      0.078113
      5 H2         -0.2670   -1.9560    6.4800 hc        1 MOL      0.078113
      6 H3          1.2350   -2.8570    6.8000 hc        1 MOL      0.078113
      7 N1          2.2120   -1.5830    4.2760 n         1 MOL     -0.664436
      8 C3          2.6370   -1.6720    2.9340 c3        1 MOL      0.196608
      9 C4          2.9790   -3.1340    2.4540 c         1 MOL      0.492183
     10 O2          3.6390   -3.9210    3.1860 o         1 MOL     -0.586739
     11 C5          3.8400   -0.7190    2.8360 c3        1 MOL     -0.272080
     12 C6          4.6480   -0.7800    1.5750 c         1 MOL      0.677841
     13 O3          5.7990   -0.3060    1.6420 o         1 MOL     -0.587163
     14 O4          4.1260   -1.1340    0.4370 o         1 MOL     -0.587163
     15 H4          2.9070   -1.1180    4.8370 hn        1 MOL      0.327078
     16 H5          1.8160   -1.3310    2.3020 h1        1 MOL      0.157330
     17 H6          4.4840   -0.9410    3.6770 hc        1 MOL      0.062615
     18 H7          3.5070    0.3120    2.9090 hc        1 MOL      0.062615
     19 N2          2.5200   -3.4230    1.2520 n         1 MOL     -0.042841
     20 C7          2.6090   -4.7210    0.6560 c3        1 MOL      0.131258
     21 C8          3.8090   -4.8350   -0.2680 c         1 MOL      0.350039
     22 O5          4.6140   -5.8130   -0.1370 o         1 MOL     -0.557720
     23 C9          1.2490   -4.9580   -0.1210 c3        1 MOL      0.161719
     24 C10         0.1410   -5.5080    0.8060 c3        1 MOL     -0.179362
     25 C11         1.2110   -5.9640   -1.2190 c3        1 MOL     -0.271653
     26 C12        -0.1830   -4.7250    2.0180 c3        1 MOL      0.019935
     27 H8          2.0540   -2.6380    0.8330 hn        1 MOL     -0.283392
     28 H9          2.8610   -5.4970    1.3750 h1        1 MOL      0.031087
     29 H10         0.9450   -4.0310   -0.6090 hc        1 MOL      0.086311
     30 H11         0.4100   -6.4710    1.2310 hc        1 MOL      0.030323
     31 H12        -0.8190   -5.6220    0.2920 hc        1 MOL      0.030323
     32 H13         0.2050   -6.3190   -1.4430 hc        1 MOL      0.044765
     33 H14         1.7120   -5.6710   -2.1340 hc        1 MOL      0.044765
     34 H15         1.8110   -6.8060   -0.8800 hc        1 MOL      0.044765
     35 H16         0.6000   -5.0720    2.6920 hc        1 MOL      0.013782
     36 H17        -0.0320   -3.6710    1.7870 hc        1 MOL      0.013782
     37 H18        -1.1320   -5.0640    2.4350 hc        1 MOL      0.013782
     38 N3          3.9370   -3.8810   -1.2220 n         1 MOL     -0.073142
     39 C13         4.7560   -3.9290   -2.3180 c3        1 MOL     -0.010020
     40 C14         6.0630   -3.1220   -2.1610 c         1 MOL      0.406425
     41 O6          7.0170   -3.3990   -2.8740 o         1 MOL     -0.553480
     42 C15         4.0240   -3.6270   -3.6200 c3        1 MOL     -0.175108
     43 C16         3.4090   -2.2380   -3.6920 c         1 MOL      0.783896
     44 O7          2.6710   -2.0330   -4.6550 o         1 MOL     -0.716987
     45 O8          3.6490   -1.4470   -2.7730 o         1 MOL     -0.716987
     46 H19         3.4070   -3.0300   -1.1080 hn        1 MOL      0.085573
     47 H20         5.0820   -4.9610   -2.4800 h1        1 MOL      0.071634
     48 H21         3.2910   -4.4180   -3.7730 hc        1 MOL      0.038260
     49 H22         4.7550   -3.6810   -4.4260 hc        1 MOL      0.038260
     50 N4          6.1740   -2.3360   -1.0840 n         1 MOL     -0.109717
     51 C17         7.5150   -2.0040   -0.5050 c3        1 MOL     -0.241001
     52 C18         8.0410   -0.6260   -0.9000 c         1 MOL      0.557491
     53 O9          9.2710   -0.3460   -1.0520 o         1 MOL     -0.619195
     54 H23         5.4220   -2.1780   -0.4300 hn        1 MOL      0.154079
     55 H24         8.2450   -2.7120   -0.8920 h1        1 MOL      0.110446
     56 H25         7.4350   -2.0650    0.5800 h1        1 MOL      0.110446
     57 N5          7.1450    0.3590   -1.0830 n         1 MOL     -0.142583
     58 C19         7.4510    1.7520   -1.3760 c3        1 MOL      0.005348
     59 C20         7.4760    2.6390   -0.1270 c         1 MOL      0.330281
     60 O10         7.8170    3.8310   -0.1370 o         1 MOL     -0.545157
     61 C21         6.3990    2.2240   -2.4260 c3        1 MOL     -0.262157
     62 C22         4.9560    1.8200   -2.0580 c         1 MOL      0.728818
     63 O11         4.6610    1.8140   -0.8640 o         1 MOL     -0.726755
     64 O12         4.0270    1.7550   -2.8720 o         1 MOL     -0.726755
     65 H26         6.1990    0.1550   -0.7930 hn        1 MOL      0.002462
     66 H27         8.4350    1.7650   -1.8400 h1        1 MOL      0.116253
     67 H28         6.7160    1.7400   -3.3500 hc        1 MOL      0.077085
     68 H29         6.4020    3.3100   -2.5610 hc        1 MOL      0.077085
     69 N6          7.1060    2.1450    1.0590 n         1 MOL     -0.081828
     70 C23         6.9070    2.7950    2.3120 c3        1 MOL     -0.184355
     71 C24         5.6060    3.6100    2.2810 c         1 MOL      0.597344
     72 O13         5.4790    4.5670    3.0340 o         1 MOL     -0.617803
     73 H30         6.7690    1.1990    1.0430 hn        1 MOL      0.112866
     74 H31         7.7630    3.3980    2.5840 h1        1 MOL      0.089624
     75 H32         6.7290    2.0020    3.0380 h1        1 MOL      0.089624
     76 N7          4.6100    3.3180    1.4140 n         1 MOL     -0.446250
     77 C25         3.2930    3.9800    1.1400 c3        1 MOL      0.164777
     78 C26         2.1570    2.9240    1.2960 c         1 MOL      0.662719
     79 O14         2.4350    1.7850    0.9960 o         1 MOL     -0.695900
     80 C27         3.2820    4.6570   -0.2700 c3        1 MOL      0.053294
     81 C28         2.1130    5.5690   -0.4570 c3        1 MOL     -0.200130
     82 C29         2.2670    6.5910   -1.5980 c         1 MOL      0.623053
     83 N8          2.4290    6.2290   -2.8480 n         1 MOL     -0.790949
     84 O15         2.1680    7.7910   -1.2550 o         1 MOL     -0.589454
     85 H33         4.8170    2.6100    0.7350 hn        1 MOL      0.353699
     86 H34         3.1590    4.7550    1.8870 h1        1 MOL      0.014393
     87 H35         3.2030    3.8960   -1.0460 hc        1 MOL      0.038163
     88 H36         4.2160    5.2140   -0.4160 hc        1 MOL      0.038163
     89 H37         1.9070    6.0750    0.4980 hc        1 MOL      0.051774
     90 H38         1.2400    4.9810   -0.7730 hc        1 MOL      0.051774
     91 H39         2.4370    5.2580   -3.1070 hn        1 MOL      0.371395
     92 H40         2.7080    6.9700   -3.4790 hn        1 MOL      0.371395
     93 N9          0.9930    3.3140    1.7950 n         1 MOL     -0.653412
     94 C30        -0.1760    2.4360    1.9200 c3        1 MOL      0.131140
     95 C31        -1.4200    3.0270    1.0990 c         1 MOL      0.443513
     96 O16        -1.8450    4.0870    1.4750 o         1 MOL     -0.563255
     97 C32        -0.5300    2.3080    3.4180 c3        1 MOL      0.172213
     98 C33        -1.8760    1.7730    3.8520 c3        1 MOL     -0.216469
     99 C34         0.5830    1.4130    3.9400 c3        1 MOL     -0.216469
    100 H41         0.8700    4.3000    1.9780 hn        1 MOL      0.326669
    101 H42        -0.0230    1.4470    1.4800 h1        1 MOL      0.069163
    102 H43        -0.5180    3.2700    3.9260 hc        1 MOL      0.014016
    103 H44        -1.9850    0.7390    3.5320 hc        1 MOL      0.039438
    104 H45        -1.8800    1.6950    4.9390 hc        1 MOL      0.039438
    105 H46        -2.6420    2.4260    3.4270 hc        1 MOL      0.039438
    106 H47         1.6080    1.7490    3.7770 hc        1 MOL      0.039438
    107 H48         0.4900    1.4180    5.0200 hc        1 MOL      0.039438
    108 H49         0.5450    0.3860    3.5830 hc        1 MOL      0.039438
    109 N10        -1.9490    2.3060    0.1120 n         1 MOL     -0.122835
    110 C35        -3.2270    2.5240   -0.6020 c3        1 MOL     -0.012548
    111 C36        -4.4780    1.9450    0.1840 c         1 MOL      0.345110
    112 O17        -4.2660    1.2270    1.2060 o         1 MOL     -0.294517
    113 C37        -3.0700    1.7150   -1.8850 c3        1 MOL     -0.192584
    114 C38        -3.9960    2.0890   -3.0690 c         1 MOL      0.756554
    115 N11        -3.5530    2.9530   -3.9040 n         1 MOL     -0.844008
    116 O18        -5.1240    1.6450   -3.1340 o         1 MOL     -0.589692
    117 H50        -1.5090    1.4150   -0.0840 hn        1 MOL      0.075866
    118 H51        -3.3200    3.5680   -0.9080 h1        1 MOL      0.053926
    119 H52        -3.3160    0.6780   -1.6830 hc        1 MOL      0.069555
    120 H53        -2.0510    1.7030   -2.2890 hc        1 MOL      0.069555
    121 H54        -2.6580    3.3900   -3.7570 hn        1 MOL      0.393028
    122 H55        -4.1100    2.9900   -4.7480 hn        1 MOL      0.393028
    123 N12        -5.6440    2.3310   -0.3620 n         1 MOL     -0.480024
    124 C39        -6.9210    1.6920    0.1890 c3        1 MOL      0.260541
    125 C40        -6.8540    0.1370    0.1320 c         1 MOL      0.700761
    126 O19        -7.1490   -0.5320    1.1310 o         1 MOL     -0.601438
    127 C41        -8.1600    2.2070   -0.5510 c3        1 MOL     -0.430546
    128 C42        -9.4450    1.4910   -0.1100 ca        1 MOL      0.319328
    129 C43       -10.0480    1.8400    1.1170 ca        1 MOL     -0.414353
    130 C44       -10.0800    0.6040   -0.9420 ca        1 MOL     -0.414353
    131 C45       -11.2890    1.2900    1.4580 ca        1 MOL      0.027624
    132 C46       -11.3570    0.0770   -0.6260 ca        1 MOL      0.027624
    133 C47       -12.0030    0.5490    0.5220 ca        1 MOL      0.079176
    134 O20       -13.2650    0.1730    0.8610 oh        1 MOL     -0.490361
    135 H56        -5.6480    2.9470   -1.1620 hn        1 MOL      0.307294
    136 H57        -6.9480    2.0160    1.2230 h1        1 MOL      0.035853
    137 H58        -8.0590    2.0170   -1.6190 hc        1 MOL      0.130764
    138 H59        -8.1970    3.2400   -0.2050 hc        1 MOL      0.130764
    139 H60        -9.5760    2.4790    1.8460 ha        1 MOL      0.182878
    140 H61        -9.7330    0.3230   -1.9250 ha        1 MOL      0.182878
    141 H62       -11.7900    1.6710    2.3440 ha        1 MOL      0.081157
    142 H63       -11.9230   -0.6550   -1.1840 ha        1 MOL      0.081157
    143 H64       -13.8590    0.0360    0.1170 ho        1 MOL      0.371497
    144 N13        -6.3840   -0.4110   -0.9730 n         1 MOL     -0.392224
    145 C48        -6.1130   -1.8950   -1.0600 c3        1 MOL     -0.070830
    146 C49        -5.0780   -2.4540   -0.0660 c         1 MOL      0.350299
    147 O21        -5.0000   -3.6390   -0.0080 o         1 MOL     -0.534254
    148 C50        -5.6650   -2.2270   -2.5310 c3        1 MOL      0.080125
    149 C51        -6.5280   -1.5430   -3.6180 c3        1 MOL     -0.372758
    150 C52        -5.9440   -1.9130   -4.9910 c         1 MOL      0.734551
    151 O22        -6.3530   -2.9910   -5.5560 o         1 MOL     -0.736827
    152 O23        -5.1170   -1.1910   -5.5930 o         1 MOL     -0.736827
    153 H65        -6.0510    0.1500   -1.7440 hn        1 MOL      0.226678
    154 H66        -7.0720   -2.4070   -0.9180 h1        1 MOL      0.116541
    155 H67        -5.6020   -3.2980   -2.7250 hc        1 MOL      0.039845
    156 H68        -4.6450   -1.8690   -2.6990 hc        1 MOL      0.039845
    157 H69        -6.5270   -0.4580   -3.4820 hc        1 MOL      0.064050
    158 H70        -7.5370   -1.9390   -3.5360 hc        1 MOL      0.064050
    159 N14        -4.3620   -1.6650    0.6900 n         1 MOL      0.024370
    160 C53        -3.3410   -2.0540    1.6110 c3        1 MOL     -0.056149
    161 C54        -3.8650   -1.7780    3.0210 c         1 MOL      0.406406
    162 O24        -3.4130   -2.4690    3.9160 o         1 MOL     -0.536191
    163 C55        -1.9850   -1.3400    1.3210 c3        1 MOL      0.031355
    164 C56        -1.3830   -1.8000   -0.0070 c3        1 MOL      0.061003
    165 C57        -0.1030   -1.0580   -0.2690 c         1 MOL      0.494231
    166 O25         0.9930   -1.6200   -0.3740 o         1 MOL     -0.596988
    167 O26        -0.2790    0.1370   -0.5610 o         1 MOL     -0.596988
    168 H71        -4.5760   -0.6740    0.6010 hn        1 MOL     -0.043944
    169 H72        -3.1870   -3.1370    1.5620 h1        1 MOL      0.087971
    170 H73        -1.3070   -1.5860    2.1420 hc        1 MOL      0.063937
    171 H74        -2.2110   -0.2750    1.3540 hc        1 MOL      0.063937
    172 H75        -2.1330   -1.7130   -0.7970 hc        1 MOL      0.002620
    173 H76        -1.2230   -2.8790   -0.0250 hc        1 MOL      0.002620
    174 N15        -4.6880   -0.7170    3.2310 n         1 MOL     -0.084024
    175 C58        -5.3140   -0.3100    4.4730 c3        1 MOL     -0.050438
    176 H77        -4.7110    0.4660    4.9450 h1        1 MOL      0.035494
    177 H78        -6.3100    0.0810    4.2660 h1        1 MOL      0.035494
    178 H79        -5.3890   -1.1670    5.1410 h1        1 MOL      0.035494
    179 H80        -4.9240   -0.1530    2.4240 hn        1 MOL      0.026270
    180 Ca1         2.5290    0.3320   -1.1300 Ca        1 MOL      1.761581
    181 O27         1.2550    0.1000   -3.5910 oh        1 MOL     -0.899313
    182 H81         0.3810    0.0590   -3.9740 ho        1 MOL      0.414181
    183 H82         1.7960   -0.4410   -4.1640 ho        1 MOL      0.414181
    184 O28         0.9700    2.3280   -1.7920 oh        1 MOL     -0.899313
    185 H83         0.1970    1.8140   -2.0540 ho        1 MOL      0.414181
    186 H84         1.3780    2.5820   -2.6130 ho        1 MOL      0.414181
@<TRIPOS>BOND
     1    1    2 1   
     2    1    4 1   
     3    1    5 1   
     4    1    6 1   
     5    2    3 2   
     6    2    7 1   
     7    7    8 1   
     8    7   15 1   
     9    8    9 1   
    10    8   11 1   
    11    8   16 1   
    12    9   10 2   
    13    9   19 1   
    14   11   12 1   
    15   11   17 1   
    16   11   18 1   
    17   12   13 1   
    18   12   14 1   
    19   19   20 1   
    20   19   27 1   
    21   20   21 1   
    22   20   23 1   
    23   20   28 1   
    24   21   22 2   
    25   21   38 1   
    26   23   24 1   
    27   23   25 1   
    28   23   29 1   
    29   24   26 1   
    30   24   30 1   
    31   24   31 1   
    32   25   32 1   
    33   25   33 1   
    34   25   34 1   
    35   26   35 1   
    36   26   36 1   
    37   26   37 1   
    38   38   39 1   
    39   38   46 1   
    40   39   40 1   
    41   39   42 1   
    42   39   47 1   
    43   40   41 2   
    44   40   50 1   
    45   42   43 1   
    46   42   48 1   
    47   42   49 1   
    48   43   44 1   
    49   43   45 1   
    50   50   51 1   
    51   50   54 1   
    52   51   52 1   
    53   51   55 1   
    54   51   56 1   
    55   52   53 2   
    56   52   57 1   
    57   57   58 1   
    58   57   65 1   
    59   58   59 1   
    60   58   61 1   
    61   58   66 1   
    62   59   60 2   
    63   59   69 1   
    64   61   62 1   
    65   61   67 1   
    66   61   68 1   
    67   62   63 1   
    68   62   64 1   
    69   69   70 1   
    70   69   73 1   
    71   70   71 1   
    72   70   74 1   
    73   70   75 1   
    74   71   72 2   
    75   71   76 1   
    76   76   77 1   
    77   76   85 1   
    78   77   78 1   
    79   77   80 1   
    80   77   86 1   
    81   78   79 2   
    82   78   93 1   
    83   80   81 1   
    84   80   87 1   
    85   80   88 1   
    86   81   82 1   
    87   81   89 1   
    88   81   90 1   
    89   82   83 1   
    90   82   84 2   
    91   83   91 1   
    92   83   92 1   
    93   93   94 1   
    94   93  100 1   
    95   94   95 1   
    96   94   97 1   
    97   94  101 1   
    98   95   96 2   
    99   95  109 1   
   100   97   98 1   
   101   97   99 1   
   102   97  102 1   
   103   98  103 1   
   104   98  104 1   
   105   98  105 1   
   106   99  106 1   
   107   99  107 1   
   108   99  108 1   
   109  109  110 1   
   110  109  117 1   
   111  110  111 1   
   112  110  113 1   
   113  110  118 1   
   114  111  112 2   
   115  111  123 1   
   116  113  114 1   
   117  113  119 1   
   118  113  120 1   
   119  114  115 1   
   120  114  116 2   
   121  115  121 1   
   122  115  122 1   
   123  123  124 1   
   124  123  135 1   
   125  124  125 1   
   126  124  127 1   
   127  124  136 1   
   128  125  126 2   
   129  125  144 1   
   130  127  128 1   
   131  127  137 1   
   132  127  138 1   
   133  128  129 ar  
   134  128  130 ar  
   135  129  131 ar  
   136  129  139 1   
   137  130  132 ar  
   138  130  140 1   
   139  131  133 ar  
   140  131  141 1   
   141  132  133 ar  
   142  132  142 1   
   143  133  134 1   
   144  134  143 1   
   145  144  145 1   
   146  144  153 1   
   147  145  146 1   
   148  145  148 1   
   149  145  154 1   
   150  146  147 2   
   151  146  159 1   
   152  148  149 1   
   153  148  155 1   
   154  148  156 1   
   155  149  150 1   
   156  149  157 1   
   157  149  158 1   
   158  150  151 1   
   159  150  152 1   
   160  159  160 1   
   161  159  168 1   
   162  160  161 1   
   163  160  163 1   
   164  160  169 1   
   165  161  162 2   
   166  161  174 1   
   167  163  164 1   
   168  163  170 1   
   169  163  171 1   
   170  164  165 1   
   171  164  172 1   
   172  164  173 1   
   173  165  166 1   
   174  165  167 1   
   175  174  175 1   
   176  174  179 1   
   177  175  176 1   
   178  175  177 1   
   179  175  178 1   
   180  181  182 1   
   181  181  183 1   
   182  184  185 1   
   183  184  186 1   
@<TRIPOS>SUBSTRUCTURE
     1 MOL         1 TEMP              0 ****  ****    0 ROOT
