@<TRIPOS>MOLECULE
MOL
  189   185     1     0     0
SMALL
resp


@<TRIPOS>ATOM
      1 C1          0.1330    2.2490    5.5020 c3        1 MOL     -0.542957
      2 C2         -0.3480    2.0450    4.0710 c         1 MOL      0.794262
      3 O1          0.3580    2.3030    3.1240 o         1 MOL     -0.602368
      4 H1          0.5600    3.2460    5.6020 hc        1 MOL      0.127375
      5 H2         -0.7090    2.1450    6.1870 hc        1 MOL      0.127375
      6 H3          0.8910    1.5040    5.7410 hc        1 MOL      0.127375
      7 N1         -1.6180    1.7240    3.9670 n         1 MOL     -0.674955
      8 C3         -2.2280    1.5260    2.6540 c3        1 MOL      0.340255
      9 C4         -2.6450    2.8740    2.0240 c         1 MOL      0.385822
     10 O2         -3.7700    3.2850    2.1030 o         1 MOL     -0.493695
     11 C5         -3.4570    0.6370    2.8170 c3        1 MOL     -0.210334
     12 C6         -4.1180    0.1900    1.5100 c         1 MOL      0.604494
     13 O3         -3.5940    0.3960    0.4100 o         1 MOL     -0.590521
     14 O4         -5.2730   -0.2370    1.6200 o         1 MOL     -0.590521
     15 H4         -2.2610    1.6610    4.7450 hn        1 MOL      0.348385
     16 H5         -1.5390    0.9990    1.9990 h1        1 MOL     -0.015732
     17 H6         -4.1130    1.2070    3.4780 hc        1 MOL      0.048025
     18 H7         -3.1770   -0.2250    3.4250 hc        1 MOL      0.048025
     19 N2         -1.7360    3.5270    1.3650 n         1 MOL     -0.434824
     20 C7         -1.9180    4.9260    0.9780 c3        1 MOL      0.101868
     21 C8         -2.6620    5.1220   -0.3530 c         1 MOL      0.336327
     22 O5         -3.0260    6.2590   -0.5600 o         1 MOL     -0.532987
     23 C9         -0.5710    5.5870    0.9310 c3        1 MOL     -0.275410
     24 C10         0.0880    5.9710    2.2990 c3        1 MOL      0.331103
     25 C11         1.3670    6.8000    2.1210 c3        1 MOL     -0.058214
     26 C12         1.8730    7.4790    3.4780 c3        1 MOL     -0.103890
     27 N3          2.2090    6.4220    4.5170 n4        1 MOL     -0.397176
     28 H8         -0.8280    3.1150    1.2400 hn        1 MOL      0.437666
     29 H9         -2.4750    5.4660    1.7430 h1        1 MOL      0.084074
     30 H10        -0.7010    6.5460    0.4250 hc        1 MOL      0.084842
     31 H11         0.1140    4.8570    0.5030 hc        1 MOL      0.084842
     32 H12         0.2390    5.0860    2.9250 hc        1 MOL     -0.082036
     33 H13        -0.5780    6.6550    2.8110 hc        1 MOL     -0.082036
     34 H14         1.1540    7.6100    1.4170 hc        1 MOL      0.036998
     35 H15         2.0460    6.1140    1.6050 hc        1 MOL      0.036998
     36 H16         1.0900    8.1560    3.8240 hx        1 MOL      0.130458
     37 H17         2.7340    8.1010    3.2330 hx        1 MOL      0.130458
     38 H18         2.5530    5.5900    4.0700 hn        1 MOL      0.342891
     39 H19         2.8890    6.8910    5.1050 hn        1 MOL      0.342891
     40 H20         1.4740    6.1690    5.1580 hn        1 MOL      0.342891
     41 N4         -2.7980    4.1500   -1.2580 n         1 MOL     -0.215316
     42 C13        -3.7520    4.2170   -2.3790 c3        1 MOL      0.238456
     43 C14        -5.2170    3.8730   -1.9890 c         1 MOL      0.464024
     44 O6         -6.1260    4.3690   -2.5660 o         1 MOL     -0.527563
     45 C15        -3.1650    3.5380   -3.6440 c3        1 MOL     -0.494029
     46 C16        -2.4730    2.2870   -3.3840 c         1 MOL      0.906505
     47 O7         -2.9480    1.5170   -2.5220 o         1 MOL     -0.736211
     48 O8         -1.3510    2.0510   -3.8830 o         1 MOL     -0.736211
     49 H21        -2.4080    3.2400   -1.0580 hn        1 MOL      0.174818
     50 H22        -3.9410    5.2610   -2.6520 h1        1 MOL      0.026163
     51 H23        -2.3910    4.2380   -3.9610 hc        1 MOL      0.113023
     52 H24        -3.9730    3.3700   -4.3440 hc        1 MOL      0.113023
     53 N5         -5.3620    3.0540   -0.9160 n         1 MOL     -0.024603
     54 C17        -6.6240    2.5250   -0.4920 c3        1 MOL     -0.415286
     55 C18        -7.0930    1.4230   -1.4660 c         1 MOL      0.739339
     56 O9         -7.8980    1.5990   -2.3500 o         1 MOL     -0.558264
     57 H25        -4.5340    2.6370   -0.5060 hn        1 MOL      0.052585
     58 H26        -7.3690    3.3100   -0.3380 h1        1 MOL      0.143195
     59 H27        -6.4190    2.0840    0.4860 h1        1 MOL      0.143195
     60 N6         -6.5750    0.2070   -1.2370 n         1 MOL     -0.539418
     61 C19        -6.8910   -1.0600   -2.0310 c3        1 MOL      0.191441
     62 C20        -7.1680   -2.2450   -1.0390 c         1 MOL      0.323058
     63 O10        -7.8040   -3.2430   -1.4700 o         1 MOL     -0.532186
     64 C21        -5.8570   -1.4500   -3.1120 c3        1 MOL     -0.260303
     65 C22        -4.4400   -1.5630   -2.6200 c         1 MOL      0.810662
     66 O11        -4.1850   -2.0170   -1.4760 o         1 MOL     -0.725699
     67 O12        -3.4700   -1.2960   -3.3160 o         1 MOL     -0.725699
     68 H28        -5.9160    0.1150   -0.4820 hn        1 MOL      0.188144
     69 H29        -7.8270   -0.7860   -2.5170 h1        1 MOL      0.063689
     70 H30        -5.8120   -0.6600   -3.8610 hc        1 MOL      0.082854
     71 H31        -6.1730   -2.3710   -3.5980 hc        1 MOL      0.082854
     72 N7         -6.7610   -2.1730    0.2530 n         1 MOL     -0.107579
     73 C23        -6.9900   -3.2570    1.2070 c3        1 MOL     -0.173455
     74 C24        -5.7420   -4.0920    1.4790 c         1 MOL      0.580286
     75 O13        -5.8150   -5.1940    1.9970 o         1 MOL     -0.583634
     76 H32        -6.1920   -1.3810    0.5320 hn        1 MOL      0.140561
     77 H33        -7.7340   -3.9200    0.7580 h1        1 MOL      0.100647
     78 H34        -7.3440   -2.8210    2.1300 h1        1 MOL      0.100647
     79 N8         -4.5790   -3.6900    0.9010 n         1 MOL     -0.387706
     80 C25        -3.2950   -4.3960    0.8830 c3        1 MOL     -0.043723
     81 C26        -2.1300   -3.4420    1.1050 c         1 MOL      0.667984
     82 O14        -2.1720   -2.3000    0.6440 o         1 MOL     -0.617335
     83 C27        -3.1520   -5.2540   -0.4150 c3        1 MOL      0.545651
     84 C28        -3.8340   -6.5150   -0.2540 c3        1 MOL     -0.534510
     85 O15        -3.5060   -4.6830   -1.6010 oh        1 MOL     -0.608368
     86 H35        -4.6440   -2.8100    0.4090 hn        1 MOL      0.252922
     87 H36        -3.2390   -5.0170    1.7810 h1        1 MOL      0.071203
     88 H37        -2.0920   -5.5190   -0.3810 h1        1 MOL     -0.050576
     89 H38        -4.0250   -3.9200   -1.3590 ho        1 MOL      0.399502
     90 H39        -4.9030   -6.3390   -0.1580 hc        1 MOL      0.130785
     91 H40        -3.7380   -7.0750   -1.1840 hc        1 MOL      0.130785
     92 H41        -3.4930   -7.0920    0.6020 hc        1 MOL      0.130785
     93 N9         -0.9480   -3.9380    1.5770 n         1 MOL     -0.732696
     94 C29         0.2930   -3.2030    1.7260 c3        1 MOL      0.093106
     95 C30         1.4130   -3.8220    0.8620 c         1 MOL      0.515526
     96 O16         1.6910   -5.0370    0.9570 o         1 MOL     -0.557494
     97 C31         0.7750   -3.2090    3.2370 c3        1 MOL      0.214093
     98 C32        -0.4640   -2.7850    4.1700 c3        1 MOL      0.145211
     99 C33         1.9710   -2.3420    3.5470 c3        1 MOL     -0.607750
    100 C34        -0.1200   -3.0500    5.6920 c3        1 MOL     -0.239124
    101 H42        -0.9760   -4.9250    1.7640 hn        1 MOL      0.317737
    102 H43         0.1110   -2.1670    1.4520 h1        1 MOL      0.152849
    103 H44         1.1040   -4.2260    3.4260 hc        1 MOL     -0.007281
    104 H45        -1.3560   -3.3910    3.9830 hc        1 MOL     -0.012500
    105 H46        -0.8490   -1.7900    3.9680 hc        1 MOL     -0.012500
    106 H47         2.5540   -2.7660    4.3680 hc        1 MOL      0.137362
    107 H48         2.5900   -2.2880    2.6510 hc        1 MOL      0.137362
    108 H49         1.6050   -1.3450    3.7570 hc        1 MOL      0.137362
    109 H50        -0.9290   -2.6810    6.3190 hc        1 MOL      0.051926
    110 H51        -0.0120   -4.1180    5.8860 hc        1 MOL      0.051926
    111 H52         0.8580   -2.6760    6.0140 hc        1 MOL      0.051926
    112 N10         2.1980   -3.0360    0.0610 n         1 MOL     -0.107676
    113 C35         3.4190   -3.4350   -0.6090 c3        1 MOL     -0.044449
    114 C36         4.7490   -3.1750    0.2190 c         1 MOL      0.438572
    115 O17         4.7830   -2.5130    1.2880 o         1 MOL     -0.394974
    116 C37         3.3900   -2.7630   -2.0330 c3        1 MOL      0.039826
    117 C38         2.0490   -3.0680   -2.7790 c3        1 MOL     -0.177416
    118 O18         3.5520   -1.3780   -1.9140 oh        1 MOL     -0.330780
    119 H53         1.8410   -2.1110   -0.1290 hn        1 MOL      0.138335
    120 H54         3.4320   -4.5080   -0.8080 h1        1 MOL      0.077996
    121 H55         4.2100   -3.1790   -2.6350 h1        1 MOL      0.027152
    122 H56         3.0710   -0.8780   -2.5860 ho        1 MOL      0.319966
    123 H57         1.9900   -4.1330   -3.0320 hc        1 MOL      0.065312
    124 H58         1.1440   -2.8750   -2.1960 hc        1 MOL      0.065312
    125 H59         2.0320   -2.4650   -3.6940 hc        1 MOL      0.065312
    126 N11         5.8700   -3.4940   -0.4040 n         1 MOL     -0.354662
    127 C39         7.1400   -3.0460    0.0380 c3        1 MOL     -0.213016
    128 C40         7.2390   -1.5170    0.0490 c         1 MOL      0.335564
    129 O19         7.6360   -0.9390    1.0420 o         1 MOL     -0.453539
    130 C41         8.2880   -3.6220   -0.8700 c3        1 MOL      0.385379
    131 C42         8.5400   -5.1390   -0.5490 c3        1 MOL     -0.293525
    132 O20         8.0420   -3.5280   -2.2280 oh        1 MOL     -0.582443
    133 H60         5.8550   -3.9270   -1.3120 hn        1 MOL      0.305270
    134 H61         7.3410   -3.4130    1.0380 h1        1 MOL      0.152902
    135 H62         9.2330   -3.1500   -0.6160 h1        1 MOL      0.015212
    136 H63         8.5210   -2.7460   -2.5180 ho        1 MOL      0.359919
    137 H64         9.2290   -5.5230   -1.2970 hc        1 MOL      0.083718
    138 H65         9.0170   -5.2150    0.4300 hc        1 MOL      0.083718
    139 H66         7.6560   -5.7740   -0.6400 hc        1 MOL      0.083718
    140 N12         6.7400   -0.9150   -0.9980 n         1 MOL     -0.145478
    141 C43         6.8730    0.5690   -1.2930 c3        1 MOL     -0.136383
    142 C44         6.1800    1.4030   -0.2510 c         1 MOL      0.421634
    143 O21         6.7080    2.3580    0.3090 o         1 MOL     -0.529718
    144 C45         6.3880    0.7920   -2.7300 c3        1 MOL     -0.153378
    145 C46         6.6710    2.2640   -3.1790 c3        1 MOL      0.056198
    146 C47         6.7000    2.3630   -4.6950 c3        1 MOL     -0.032986
    147 C48         6.8190    3.7880   -5.1970 c3        1 MOL      0.056515
    148 N13         7.7420    3.9440   -6.2720 n4        1 MOL     -0.307836
    149 H67         6.0140   -1.3490   -1.5470 hn        1 MOL      0.130933
    150 H68         7.8950    0.9260   -1.2210 h1        1 MOL      0.127098
    151 H69         5.3310    0.5510   -2.7980 hc        1 MOL      0.051736
    152 H70         6.8730    0.1130   -3.4340 hc        1 MOL      0.051736
    153 H71         7.5930    2.6110   -2.7020 hc        1 MOL      0.013245
    154 H72         5.9330    2.8980   -2.6820 hc        1 MOL      0.013245
    155 H73         5.8230    1.9220   -5.1700 hc        1 MOL      0.032978
    156 H74         7.5760    1.8080   -5.0200 hc        1 MOL      0.032978
    157 H75         6.9160    4.5190   -4.3850 hx        1 MOL      0.083529
    158 H76         5.8340    3.9970   -5.5990 hx        1 MOL      0.083529
    159 H77         7.5570    3.2140   -6.9460 hn        1 MOL      0.291793
    160 H78         7.6880    4.8560   -6.6980 hn        1 MOL      0.291793
    161 H79         8.6590    3.6970   -5.9520 hn        1 MOL      0.291793
    162 N14         5.0150    0.9680    0.1020 n         1 MOL     -0.001214
    163 C49         4.1670    1.5090    1.2160 c3        1 MOL     -0.226890
    164 C50         4.7780    1.3380    2.5910 c         1 MOL      0.616348
    165 O22         4.8800    2.4150    3.2280 o         1 MOL     -0.588529
    166 C51         2.8020    0.7260    1.1080 c3        1 MOL      0.172609
    167 C52         1.9740    1.3500    0.0010 c3        1 MOL     -0.030703
    168 C53         0.6520    0.6800   -0.3030 c         1 MOL      0.690301
    169 O23         0.4770   -0.5420   -0.4300 o         1 MOL     -0.783479
    170 O24        -0.3270    1.4720   -0.4310 o         1 MOL     -0.783479
    171 H80         4.6570    0.1910   -0.4350 hn        1 MOL      0.076214
    172 H81         4.0570    2.5760    1.0140 h1        1 MOL      0.098988
    173 H82         2.2590    0.7360    2.0580 hc        1 MOL     -0.051831
    174 H83         3.0270   -0.3200    0.9320 hc        1 MOL     -0.051831
    175 H84         2.5710    1.4390   -0.9040 hc        1 MOL     -0.025929
    176 H85         1.7410    2.3810    0.2640 hc        1 MOL     -0.025929
    177 N15         5.2380    0.1550    3.0400 n         1 MOL     -0.349001
    178 C54         6.2530    0.0000    4.1050 c3        1 MOL     -0.157961
    179 H86         6.8530    0.9080    4.1690 h1        1 MOL      0.090286
    180 H87         5.7550   -0.1740    5.0580 h1        1 MOL      0.090286
    181 H88         6.8990   -0.8460    3.8710 h1        1 MOL      0.090286
    182 H89         5.1660   -0.6410    2.4180 hn        1 MOL      0.279429
    183 Ca1        -1.9360   -0.5380   -1.3480 Ca        1 MOL      1.723960
    184 O25        -1.2600   -3.1710   -2.0820 oh        1 MOL     -0.804638
    185 H90        -0.8810   -3.3350   -2.9450 ho        1 MOL      0.376372
    186 H91        -2.0510   -3.7210   -2.0640 ho        1 MOL      0.376372
    187 O26        -0.3220   -0.1820   -3.7240 oh        1 MOL     -0.804638
    188 H92        -0.5860    0.7230   -3.5490 ho        1 MOL      0.376372
    189 H93         0.6230   -0.1400   -3.8690 ho        1 MOL      0.376372
@<TRIPOS>BOND
     1    1    2 1   
     2    1    4 1   
     3    1    5 1   
     4    1    6 1   
     5    2    3 2   
     6    2    7 1   
     7    7    8 1   
     8    7   15 1   
     9    8    9 1   
    10    8   11 1   
    11    8   16 1   
    12    9   10 2   
    13    9   19 1   
    14   11   12 1   
    15   11   17 1   
    16   11   18 1   
    17   12   13 1   
    18   12   14 1   
    19   19   20 1   
    20   19   28 1   
    21   20   21 1   
    22   20   23 1   
    23   20   29 1   
    24   21   22 2   
    25   21   41 1   
    26   23   24 1   
    27   23   30 1   
    28   23   31 1   
    29   24   25 1   
    30   24   32 1   
    31   24   33 1   
    32   25   26 1   
    33   25   34 1   
    34   25   35 1   
    35   26   27 1   
    36   26   36 1   
    37   26   37 1   
    38   27   38 1   
    39   27   39 1   
    40   27   40 1   
    41   41   42 1   
    42   41   49 1   
    43   42   43 1   
    44   42   45 1   
    45   42   50 1   
    46   43   44 2   
    47   43   53 1   
    48   45   46 1   
    49   45   51 1   
    50   45   52 1   
    51   46   47 1   
    52   46   48 1   
    53   53   54 1   
    54   53   57 1   
    55   54   55 1   
    56   54   58 1   
    57   54   59 1   
    58   55   56 2   
    59   55   60 1   
    60   60   61 1   
    61   60   68 1   
    62   61   62 1   
    63   61   64 1   
    64   61   69 1   
    65   62   63 2   
    66   62   72 1   
    67   64   65 1   
    68   64   70 1   
    69   64   71 1   
    70   65   66 1   
    71   65   67 1   
    72   72   73 1   
    73   72   76 1   
    74   73   74 1   
    75   73   77 1   
    76   73   78 1   
    77   74   75 2   
    78   74   79 1   
    79   79   80 1   
    80   79   86 1   
    81   80   81 1   
    82   80   83 1   
    83   80   87 1   
    84   81   82 2   
    85   81   93 1   
    86   83   84 1   
    87   83   85 1   
    88   83   88 1   
    89   84   90 1   
    90   84   91 1   
    91   84   92 1   
    92   85   89 1   
    93   93   94 1   
    94   93  101 1   
    95   94   95 1   
    96   94   97 1   
    97   94  102 1   
    98   95   96 2   
    99   95  112 1   
   100   97   98 1   
   101   97   99 1   
   102   97  103 1   
   103   98  100 1   
   104   98  104 1   
   105   98  105 1   
   106   99  106 1   
   107   99  107 1   
   108   99  108 1   
   109  100  109 1   
   110  100  110 1   
   111  100  111 1   
   112  112  113 1   
   113  112  119 1   
   114  113  114 1   
   115  113  116 1   
   116  113  120 1   
   117  114  115 2   
   118  114  126 1   
   119  116  117 1   
   120  116  118 1   
   121  116  121 1   
   122  117  123 1   
   123  117  124 1   
   124  117  125 1   
   125  118  122 1   
   126  126  127 1   
   127  126  133 1   
   128  127  128 1   
   129  127  130 1   
   130  127  134 1   
   131  128  129 2   
   132  128  140 1   
   133  130  131 1   
   134  130  132 1   
   135  130  135 1   
   136  131  137 1   
   137  131  138 1   
   138  131  139 1   
   139  132  136 1   
   140  140  141 1   
   141  140  149 1   
   142  141  142 1   
   143  141  144 1   
   144  141  150 1   
   145  142  143 2   
   146  142  162 1   
   147  144  145 1   
   148  144  151 1   
   149  144  152 1   
   150  145  146 1   
   151  145  153 1   
   152  145  154 1   
   153  146  147 1   
   154  146  155 1   
   155  146  156 1   
   156  147  148 1   
   157  147  157 1   
   158  147  158 1   
   159  148  159 1   
   160  148  160 1   
   161  148  161 1   
   162  162  163 1   
   163  162  171 1   
   164  163  164 1   
   165  163  166 1   
   166  163  172 1   
   167  164  165 2   
   168  164  177 1   
   169  166  167 1   
   170  166  173 1   
   171  166  174 1   
   172  167  168 1   
   173  167  175 1   
   174  167  176 1   
   175  168  169 1   
   176  168  170 1   
   177  177  178 1   
   178  177  182 1   
   179  178  179 1   
   180  178  180 1   
   181  178  181 1   
   182  184  185 1   
   183  184  186 1   
   184  187  188 1   
   185  187  189 1   
@<TRIPOS>SUBSTRUCTURE
     1 MOL         1 TEMP              0 ****  ****    0 ROOT
