@<TRIPOS>MOLECULE
MOL
  180   179     1     0     0
SMALL
resp


@<TRIPOS>ATOM
      1 C1         -1.2910    3.3330    5.5900 c3        1 MOL     -0.273452
      2 C2         -1.7390    3.2050    4.1510 c         1 MOL      0.754026
      3 O1         -1.0380    3.7280    3.2990 o         1 MOL     -0.592535
      4 H1         -2.0650    3.8370    6.1670 hc        1 MOL      0.055304
      5 H2         -1.1160    2.3410    6.0060 hc        1 MOL      0.055304
      6 H3         -0.3700    3.9140    5.6330 hc        1 MOL      0.055304
      7 N1         -2.8480    2.5670    3.8190 n         1 MOL     -0.693851
      8 C3         -3.1990    2.1490    2.4520 c3        1 MOL      0.457354
      9 C4         -3.8460    3.3170    1.7320 c         1 MOL      0.456721
     10 O2         -4.6530    4.0730    2.2430 o         1 MOL     -0.594687
     11 C5         -4.1620    0.9720    2.5320 c3        1 MOL     -0.455770
     12 C6         -4.7180    0.5750    1.1160 c         1 MOL      0.729851
     13 O3         -5.9440    0.2620    1.0100 o         1 MOL     -0.632404
     14 O4         -3.9000    0.5860    0.1410 o         1 MOL     -0.632404
     15 H4         -3.5050    2.3210    4.5390 hn        1 MOL      0.314474
     16 H5         -2.3100    1.7690    1.9500 h1        1 MOL     -0.040525
     17 H6         -4.9320    1.1660    3.2790 hc        1 MOL      0.091552
     18 H7         -3.5310    0.1650    2.9170 hc        1 MOL      0.091552
     19 N2         -3.3040    3.5390    0.5610 n         1 MOL     -0.377020
     20 C7         -3.7060    4.6850   -0.3060 c3        1 MOL     -0.102542
     21 C8         -4.3850    4.1620   -1.6090 c         1 MOL      0.484122
     22 O5         -4.8230    4.9800   -2.3810 o         1 MOL     -0.550664
     23 C9         -2.4830    5.5280   -0.6000 c3        1 MOL      0.314968
     24 C10        -1.5720    5.6860    0.6370 c3        1 MOL     -0.173867
     25 C11        -2.9800    6.9640   -1.0390 c3        1 MOL     -0.253206
     26 C12        -0.3810    6.6650    0.5030 c3        1 MOL     -0.254396
     27 H8         -2.5950    2.9390    0.1680 hn        1 MOL      0.266164
     28 H9         -4.3570    5.3450    0.2710 h1        1 MOL      0.094700
     29 H10        -1.8760    5.0750   -1.3850 hc        1 MOL      0.017956
     30 H11        -1.0690    4.7190    0.7480 hc        1 MOL      0.091803
     31 H12        -2.0930    5.8690    1.5780 hc        1 MOL      0.091803
     32 H13        -3.5680    7.4030   -0.2300 hc        1 MOL      0.035450
     33 H14        -2.0990    7.5560   -1.2960 hc        1 MOL      0.035450
     34 H15        -3.5990    6.9540   -1.9350 hc        1 MOL      0.035450
     35 H16        -0.5740    7.7170    0.7290 hc        1 MOL      0.051485
     36 H17         0.3960    6.3900    1.2190 hc        1 MOL      0.051485
     37 H18        -0.0680    6.5600   -0.5320 hc        1 MOL      0.051485
     38 N3         -4.5740    2.8660   -1.7680 n         1 MOL     -0.171227
     39 C13        -5.2520    2.4190   -2.9390 c3        1 MOL     -0.101043
     40 C14        -6.6730    1.8840   -2.7740 c         1 MOL      0.446697
     41 O6         -7.4130    1.8910   -3.7890 o         1 MOL     -0.553292
     42 C15        -4.4890    1.2770   -3.5610 c3        1 MOL      0.012358
     43 C16        -2.9950    1.3910   -3.7070 c         1 MOL      0.722741
     44 O7         -2.5990    2.2800   -4.4850 o         1 MOL     -0.730310
     45 O8         -2.1750    0.6750   -3.1190 o         1 MOL     -0.730310
     46 H19        -4.1150    2.1770   -1.2040 hn        1 MOL      0.142700
     47 H20        -5.3460    3.1790   -3.7160 h1        1 MOL      0.100005
     48 H21        -4.9130    0.9330   -4.4980 hc        1 MOL     -0.006555
     49 H22        -4.5540    0.4190   -2.8930 hc        1 MOL     -0.006555
     50 N4         -7.1470    1.4400   -1.5830 n         1 MOL     -0.270603
     51 C17        -8.4360    0.7700   -1.3730 c3        1 MOL     -0.100053
     52 C18        -8.3010   -0.7320   -1.4770 c         1 MOL      0.536243
     53 O9         -9.2440   -1.5260   -1.6710 o         1 MOL     -0.613105
     54 H23        -6.5210    1.4450   -0.7830 hn        1 MOL      0.179986
     55 H24        -9.1380    1.1300   -2.1260 h1        1 MOL      0.080302
     56 H25        -8.8150    1.0670   -0.3980 h1        1 MOL      0.080302
     57 N5         -7.0690   -1.2930   -1.1750 n         1 MOL     -0.212415
     58 C19        -6.8680   -2.7520   -1.4330 c3        1 MOL     -0.124295
     59 C20        -6.7400   -3.5590   -0.1810 c         1 MOL      0.344944
     60 O10        -6.5260   -4.7920   -0.1700 o         1 MOL     -0.551440
     61 C21        -5.7120   -2.9410   -2.3180 c3        1 MOL     -0.157266
     62 C22        -4.3280   -2.3220   -1.8340 c         1 MOL      0.788047
     63 O11        -3.4780   -2.0680   -2.7020 o         1 MOL     -0.789177
     64 O12        -4.0770   -2.1380   -0.6460 o         1 MOL     -0.789177
     65 H26        -6.2840   -0.7470   -0.8510 hn        1 MOL      0.205589
     66 H27        -7.7040   -3.1620   -2.0010 h1        1 MOL      0.160701
     67 H28        -5.9460   -2.5590   -3.3170 hc        1 MOL      0.049232
     68 H29        -5.5160   -3.9880   -2.5220 hc        1 MOL      0.049232
     69 N6         -6.8120   -2.9940    1.0060 n         1 MOL     -0.057386
     70 C23        -6.5990   -3.5150    2.3720 c3        1 MOL     -0.407784
     71 C24        -5.1740   -4.0380    2.7530 c         1 MOL      0.687899
     72 O13        -5.0510   -4.7470    3.7190 o         1 MOL     -0.599406
     73 H30        -6.9580   -2.0040    0.9180 hn        1 MOL      0.155335
     74 H31        -7.2460   -4.3880    2.4120 h1        1 MOL      0.143815
     75 H32        -6.8980   -2.6770    3.0190 h1        1 MOL      0.143815
     76 N7         -4.1520   -3.7310    1.9280 n         1 MOL     -0.395011
     77 C25        -2.7370   -4.0600    2.1000 c3        1 MOL      0.120671
     78 C26        -1.8230   -2.7500    2.0810 c         1 MOL      0.407619
     79 O14        -2.0900   -1.7520    1.3800 o         1 MOL     -0.602796
     80 C27        -2.3010   -5.2700    1.1890 c3        1 MOL     -0.204701
     81 C28        -2.6240   -5.1720   -0.3020 c3        1 MOL      0.057093
     82 C29        -1.6540   -4.3310   -1.0810 c         1 MOL      0.589900
     83 N8         -1.5830   -4.6150   -2.4050 n         1 MOL     -0.835904
     84 O15        -0.8930   -3.4790   -0.6240 o         1 MOL     -0.511667
     85 H33        -4.4340   -3.1850    1.1160 hn        1 MOL      0.330139
     86 H34        -2.6120   -4.3720    3.1300 h1        1 MOL      0.019764
     87 H35        -2.9120   -6.0700    1.6140 hc        1 MOL      0.063124
     88 H36        -1.2470   -5.4800    1.3680 hc        1 MOL      0.063124
     89 H37        -3.6350   -4.7980   -0.5020 hc        1 MOL      0.009893
     90 H38        -2.5640   -6.1890   -0.6860 hc        1 MOL      0.009893
     91 H39        -2.2690   -5.1800   -2.8600 hn        1 MOL      0.377215
     92 H40        -1.2560   -3.7900   -2.8990 hn        1 MOL      0.377215
     93 N9         -0.7350   -2.8380    2.8330 n         1 MOL     -0.269067
     94 C30         0.4430   -1.8980    2.7410 c3        1 MOL     -0.059932
     95 C31         1.5300   -2.4470    1.8240 c         1 MOL      0.374582
     96 O16         2.2880   -3.3540    2.1640 o         1 MOL     -0.563845
     97 C32         0.9990   -1.6430    4.1630 c3        1 MOL      0.179052
     98 C33         2.1850   -0.6700    4.1090 c3        1 MOL     -0.304826
     99 C34        -0.0360   -0.9820    5.0230 c3        1 MOL     -0.304826
    100 H41        -0.6240   -3.6710    3.4020 hn        1 MOL      0.227713
    101 H42         0.1030   -0.9440    2.3330 h1        1 MOL      0.179581
    102 H43         1.4680   -2.5440    4.5490 hc        1 MOL      0.027108
    103 H44         2.4010   -0.7710    5.1720 hc        1 MOL      0.065279
    104 H45         3.0160   -1.1710    3.6210 hc        1 MOL      0.065279
    105 H46         2.0660    0.3670    3.7740 hc        1 MOL      0.065279
    106 H47         0.3840   -0.7730    6.0110 hc        1 MOL      0.065279
    107 H48        -0.4240   -0.1170    4.4930 hc        1 MOL      0.065279
    108 H49        -0.9060   -1.5890    5.2540 hc        1 MOL      0.065279
    109 N10         1.8190   -1.7850    0.7240 n         1 MOL     -0.094214
    110 C35         3.0070   -2.0420   -0.0950 c3        1 MOL     -0.024892
    111 C36         4.3410   -1.6010    0.5330 c         1 MOL      0.469242
    112 O17         4.3890   -0.7560    1.4270 o         1 MOL     -0.368521
    113 C37         2.7960   -1.3560   -1.4730 c3        1 MOL     -0.528391
    114 C38         1.5390   -1.8210   -2.2430 c         1 MOL      0.899560
    115 N11         1.5550   -2.9290   -2.9100 n         1 MOL     -0.877423
    116 O18         0.5650   -1.1250   -2.1830 o         1 MOL     -0.691949
    117 H50         1.2140   -1.0170    0.4820 hn        1 MOL      0.187119
    118 H51         3.0350   -3.1100   -0.2670 h1        1 MOL      0.063271
    119 H52         3.6480   -1.6700   -2.0760 hc        1 MOL      0.181679
    120 H53         2.6960   -0.2690   -1.4440 hc        1 MOL      0.181679
    121 H54         2.4440   -3.4110   -2.9220 hn        1 MOL      0.386840
    122 H55         0.8570   -3.1880   -3.5850 hn        1 MOL      0.386840
    123 N12         5.4490   -2.1080   -0.0140 n         1 MOL     -0.509469
    124 C39         6.8210   -1.5610    0.1600 c3        1 MOL      0.141645
    125 C40         6.9050   -0.1070   -0.1290 c         1 MOL      0.624850
    126 O19         7.5050    0.5650    0.6690 o         1 MOL     -0.587152
    127 C41         7.9040   -2.2800   -0.5780 c3        1 MOL     -0.124942
    128 C42         9.3280   -1.7120   -0.4930 ca        1 MOL      0.063947
    129 C43        10.0660   -1.8770    0.6650 ca        1 MOL     -0.203182
    130 C44         9.8830   -0.9690   -1.5670 ca        1 MOL     -0.203182
    131 C45        11.3550   -1.3040    0.7790 ca        1 MOL     -0.138008
    132 C46        11.2170   -0.4860   -1.4720 ca        1 MOL     -0.138008
    133 C47        12.0410   -0.7790   -0.3380 ca        1 MOL      0.221634
    134 O20        13.3130   -0.4620   -0.2700 oh        1 MOL     -0.528864
    135 H56         5.3430   -2.8900   -0.6570 hn        1 MOL      0.315502
    136 H57         7.0050   -1.5460    1.2340 h1        1 MOL      0.044451
    137 H58         7.6850   -2.2090   -1.6440 hc        1 MOL      0.044189
    138 H59         7.8240   -3.3410   -0.3350 hc        1 MOL      0.044189
    139 H60         9.6280   -2.4140    1.4890 ha        1 MOL      0.132797
    140 H61         9.3300   -0.7390   -2.4650 ha        1 MOL      0.132797
    141 H62        11.8720   -1.4970    1.7110 ha        1 MOL      0.092106
    142 H63        11.7410   -0.0170   -2.2780 ha        1 MOL      0.092106
    143 H64        13.6910    0.0510   -0.9910 ho        1 MOL      0.409455
    144 N13         6.3030    0.2760   -1.2330 n         1 MOL     -0.179450
    145 C48         6.1820    1.6630   -1.7190 c3        1 MOL     -0.096941
    146 C49         5.3180    2.5310   -0.8070 c         1 MOL      0.386178
    147 O21         5.4040    3.7380   -0.8980 o         1 MOL     -0.517802
    148 C50         5.6820    1.5270   -3.1050 c3        1 MOL      0.170801
    149 C51         6.6660    1.0130   -4.1270 c3        1 MOL     -0.327557
    150 C52         6.8670   -0.5970   -4.0960 c         1 MOL      0.815189
    151 O22         7.9350   -0.9790   -4.6640 o         1 MOL     -0.726287
    152 O23         5.9730   -1.3510   -3.6430 o         1 MOL     -0.726287
    153 H65         5.9620   -0.4850   -1.7900 hn        1 MOL      0.097526
    154 H66         7.1570    2.1580   -1.7230 h1        1 MOL      0.082956
    155 H67         5.4430    2.5680   -3.3350 hc        1 MOL     -0.006283
    156 H68         4.6970    1.0620   -3.1100 hc        1 MOL     -0.006283
    157 H69         7.6490    1.4760   -4.0200 hc        1 MOL      0.055792
    158 H70         6.2440    1.1740   -5.1180 hc        1 MOL      0.055792
    159 N14         4.5100    1.9410    0.1030 n         1 MOL     -0.034887
    160 C53         3.6900    2.5930    1.0910 c3        1 MOL     -0.096488
    161 C54         4.3480    2.7450    2.4960 c         1 MOL      0.446784
    162 O24         4.1750    3.6280    3.3390 o         1 MOL     -0.538184
    163 C55         2.3320    1.9310    1.2800 c3        1 MOL     -0.009559
    164 C56         1.3060    2.5190    0.3290 c3        1 MOL     -0.295674
    165 C57         0.1090    1.5940    0.1590 c         1 MOL      0.870096
    166 O25        -0.9280    2.0300   -0.3270 o         1 MOL     -0.776424
    167 O26         0.1330    0.3960    0.2860 o         1 MOL     -0.776424
    168 H71         4.4900    0.9370    0.0060 hn        1 MOL     -0.037269
    169 H72         3.5620    3.6340    0.7660 h1        1 MOL      0.080841
    170 H73         2.0710    2.0830    2.3310 hc        1 MOL      0.077366
    171 H74         2.4770    0.8580    1.1050 hc        1 MOL      0.077366
    172 H75         1.7740    2.7240   -0.6320 hc        1 MOL      0.108057
    173 H76         0.9770    3.4530    0.7890 hc        1 MOL      0.108057
    174 N15         5.2780    1.7350    2.7460 n         1 MOL     -0.123876
    175 C58         6.1010    1.6490    3.9750 c3        1 MOL     -0.213165
    176 H77         5.5030    1.9510    4.8350 h1        1 MOL      0.079373
    177 H78         6.4420    0.6220    4.1130 h1        1 MOL      0.079373
    178 H79         6.9630    2.3090    3.8820 h1        1 MOL      0.079373
    179 H80         5.3550    1.0110    2.0420 hn        1 MOL      0.100920
    180 Ca1        -1.8100   -0.6410   -0.9480 Ca        1 MOL      1.751532
@<TRIPOS>BOND
     1    1    2 1   
     2    1    4 1   
     3    1    5 1   
     4    1    6 1   
     5    2    3 2   
     6    2    7 1   
     7    7    8 1   
     8    7   15 1   
     9    8    9 1   
    10    8   11 1   
    11    8   16 1   
    12    9   10 2   
    13    9   19 1   
    14   11   12 1   
    15   11   17 1   
    16   11   18 1   
    17   12   13 1   
    18   12   14 1   
    19   19   20 1   
    20   19   27 1   
    21   20   21 1   
    22   20   23 1   
    23   20   28 1   
    24   21   22 2   
    25   21   38 1   
    26   23   24 1   
    27   23   25 1   
    28   23   29 1   
    29   24   26 1   
    30   24   30 1   
    31   24   31 1   
    32   25   32 1   
    33   25   33 1   
    34   25   34 1   
    35   26   35 1   
    36   26   36 1   
    37   26   37 1   
    38   38   39 1   
    39   38   46 1   
    40   39   40 1   
    41   39   42 1   
    42   39   47 1   
    43   40   41 2   
    44   40   50 1   
    45   42   43 1   
    46   42   48 1   
    47   42   49 1   
    48   43   44 1   
    49   43   45 1   
    50   50   51 1   
    51   50   54 1   
    52   51   52 1   
    53   51   55 1   
    54   51   56 1   
    55   52   53 2   
    56   52   57 1   
    57   57   58 1   
    58   57   65 1   
    59   58   59 1   
    60   58   61 1   
    61   58   66 1   
    62   59   60 2   
    63   59   69 1   
    64   61   62 1   
    65   61   67 1   
    66   61   68 1   
    67   62   63 1   
    68   62   64 1   
    69   69   70 1   
    70   69   73 1   
    71   70   71 1   
    72   70   74 1   
    73   70   75 1   
    74   71   72 2   
    75   71   76 1   
    76   76   77 1   
    77   76   85 1   
    78   77   78 1   
    79   77   80 1   
    80   77   86 1   
    81   78   79 2   
    82   78   93 1   
    83   80   81 1   
    84   80   87 1   
    85   80   88 1   
    86   81   82 1   
    87   81   89 1   
    88   81   90 1   
    89   82   83 1   
    90   82   84 2   
    91   83   91 1   
    92   83   92 1   
    93   93   94 1   
    94   93  100 1   
    95   94   95 1   
    96   94   97 1   
    97   94  101 1   
    98   95   96 2   
    99   95  109 1   
   100   97   98 1   
   101   97   99 1   
   102   97  102 1   
   103   98  103 1   
   104   98  104 1   
   105   98  105 1   
   106   99  106 1   
   107   99  107 1   
   108   99  108 1   
   109  109  110 1   
   110  109  117 1   
   111  110  111 1   
   112  110  113 1   
   113  110  118 1   
   114  111  112 2   
   115  111  123 1   
   116  113  114 1   
   117  113  119 1   
   118  113  120 1   
   119  114  115 1   
   120  114  116 2   
   121  115  121 1   
   122  115  122 1   
   123  123  124 1   
   124  123  135 1   
   125  124  125 1   
   126  124  127 1   
   127  124  136 1   
   128  125  126 2   
   129  125  144 1   
   130  127  128 1   
   131  127  137 1   
   132  127  138 1   
   133  128  129 ar  
   134  128  130 ar  
   135  129  131 ar  
   136  129  139 1   
   137  130  132 ar  
   138  130  140 1   
   139  131  133 ar  
   140  131  141 1   
   141  132  133 ar  
   142  132  142 1   
   143  133  134 1   
   144  134  143 1   
   145  144  145 1   
   146  144  153 1   
   147  145  146 1   
   148  145  148 1   
   149  145  154 1   
   150  146  147 2   
   151  146  159 1   
   152  148  149 1   
   153  148  155 1   
   154  148  156 1   
   155  149  150 1   
   156  149  157 1   
   157  149  158 1   
   158  150  151 1   
   159  150  152 1   
   160  159  160 1   
   161  159  168 1   
   162  160  161 1   
   163  160  163 1   
   164  160  169 1   
   165  161  162 2   
   166  161  174 1   
   167  163  164 1   
   168  163  170 1   
   169  163  171 1   
   170  164  165 1   
   171  164  172 1   
   172  164  173 1   
   173  165  166 1   
   174  165  167 1   
   175  174  175 1   
   176  174  179 1   
   177  175  176 1   
   178  175  177 1   
   179  175  178 1   
@<TRIPOS>SUBSTRUCTURE
     1 MOL         1 TEMP              0 ****  ****    0 ROOT
