@<TRIPOS>MOLECULE
MOL
  176   174     1     0     0
SMALL
resp


@<TRIPOS>ATOM
      1 C1         -1.3750    4.3690    6.5200 c3        1 MOL     -0.248978
      2 C2         -0.9530    4.0770    5.0450 c         1 MOL      0.676088
      3 O1         -0.0030    4.6520    4.4980 o         1 MOL     -0.563058
      4 H1         -1.8710    5.3370    6.5700 hc        1 MOL      0.068836
      5 H2         -2.0590    3.5930    6.8620 hc        1 MOL      0.068836
      6 H3         -0.4900    4.3810    7.1570 hc        1 MOL      0.068836
      7 N1         -1.7360    3.2420    4.3410 n         1 MOL     -0.578699
      8 C3         -1.6280    2.8810    2.9340 c3        1 MOL     -0.161568
      9 C4         -1.6430    4.2080    2.1240 c         1 MOL      0.804296
     10 O2         -2.4340    5.1650    2.3440 o         1 MOL     -0.550145
     11 C5         -2.8070    1.9750    2.5630 c3        1 MOL     -0.228327
     12 C6         -2.8100    1.4870    1.1350 c         1 MOL      0.863758
     13 O3         -2.4190    2.2090    0.2270 o         1 MOL     -0.797619
     14 O4         -3.1780    0.3010    0.9040 o         1 MOL     -0.797619
     15 H4         -2.3820    2.6270    4.8170 hn        1 MOL      0.324179
     16 H5         -0.6680    2.3580    2.8340 h1        1 MOL      0.131543
     17 H6         -3.6840    2.5940    2.7550 hc        1 MOL      0.085887
     18 H7         -2.8250    1.0790    3.1730 hc        1 MOL      0.085887
     19 N2         -0.7550    4.2730    1.0750 n         1 MOL     -0.483654
     20 C7         -0.4470    5.4350    0.2130 c3        1 MOL     -0.187252
     21 C8         -1.4700    5.6760   -0.9480 c         1 MOL      0.445850
     22 O5         -1.5890    6.7420   -1.6040 o         1 MOL     -0.565347
     23 C9          1.0530    5.3420   -0.2480 c3        1 MOL      0.266106
     24 C10         1.6830    6.6500   -0.5360 c3        1 MOL     -0.246067
     25 C11         3.1930    6.4070   -0.8490 c3        1 MOL      0.218081
     26 C12         3.9190    7.7270   -1.0550 c3        1 MOL     -0.160339
     27 N3          3.4750    8.3000   -2.3450 n4        1 MOL     -0.343851
     28 H8         -0.2370    3.4310    0.8680 hn        1 MOL      0.210981
     29 H9         -0.5990    6.2970    0.8580 h1        1 MOL      0.130462
     30 H10         1.2210    4.6000   -1.0310 hc        1 MOL      0.016187
     31 H11         1.5100    4.8990    0.6420 hc        1 MOL      0.016187
     32 H12         1.5790    7.2220    0.3830 hc        1 MOL      0.052863
     33 H13         1.1670    7.0780   -1.3920 hc        1 MOL      0.052863
     34 H14         3.2230    5.8590   -1.7930 hc        1 MOL     -0.017154
     35 H15         3.6610    5.6850   -0.1760 hc        1 MOL     -0.017154
     36 H16         5.0090    7.6420   -1.1080 hx        1 MOL      0.137922
     37 H17         3.6640    8.3650   -0.2090 hx        1 MOL      0.137922
     38 H18         3.6890    7.7150   -3.1390 hn        1 MOL      0.327493
     39 H19         2.4690    8.3940   -2.4030 hn        1 MOL      0.327493
     40 H20         3.9220    9.1980   -2.4570 hn        1 MOL      0.327493
     41 N4         -2.2080    4.6070   -1.2610 n         1 MOL     -0.180065
     42 C13        -3.3580    4.5850   -2.1980 c3        1 MOL     -0.022179
     43 C14        -4.7220    4.1180   -1.6000 c         1 MOL      0.459960
     44 O6         -5.8330    4.3980   -2.1570 o         1 MOL     -0.535177
     45 C15        -2.9920    3.7130   -3.4360 c3        1 MOL     -0.127605
     46 C16        -2.7090    2.2920   -3.1930 c         1 MOL      0.882906
     47 O7         -1.4920    1.8680   -3.2720 o         1 MOL     -0.845290
     48 O8         -3.5910    1.5670   -2.7370 o         1 MOL     -0.845290
     49 H21        -2.0700    3.8070   -0.6480 hn        1 MOL      0.245863
     50 H22        -3.5490    5.5930   -2.5720 h1        1 MOL      0.116309
     51 H23        -2.0370    4.0890   -3.7860 hc        1 MOL      0.024646
     52 H24        -3.7170    3.7940   -4.2470 hc        1 MOL      0.024646
     53 N5         -4.7490    3.6280   -0.3030 n         1 MOL     -0.260610
     54 C17        -6.0030    3.0420    0.3100 c3        1 MOL     -0.220324
     55 C18        -6.4620    1.7180   -0.1450 c         1 MOL      0.545167
     56 O9         -7.5710    1.4330    0.4150 o         1 MOL     -0.576470
     57 H25        -3.8540    3.3420    0.0680 hn        1 MOL      0.108393
     58 H26        -6.7760    3.7910    0.1060 h1        1 MOL      0.139074
     59 H27        -5.8060    2.9150    1.3700 h1        1 MOL      0.139074
     60 N6         -5.8900    0.9360   -1.0240 n         1 MOL     -0.260806
     61 C19        -6.4690   -0.3350   -1.4580 c3        1 MOL     -0.118052
     62 C20        -6.6600   -1.4430   -0.4370 c         1 MOL      0.441548
     63 O10        -7.6640   -2.1210   -0.4550 o         1 MOL     -0.550918
     64 C21        -5.6490   -0.8190   -2.6910 c3        1 MOL     -0.149350
     65 C22        -4.3170   -1.3730   -2.5480 c         1 MOL      0.551355
     66 N7         -3.7680   -1.9790   -3.5890 n         1 MOL     -0.759021
     67 O11        -3.7140   -1.3840   -1.4680 o         1 MOL     -0.440727
     68 H28        -5.0420    1.2480   -1.4750 hn        1 MOL      0.320966
     69 H29        -7.4630   -0.0710   -1.7970 h1        1 MOL      0.124869
     70 H30        -5.6340   -0.0060   -3.4040 hc        1 MOL      0.096631
     71 H31        -6.2940   -1.5510   -3.1810 hc        1 MOL      0.096631
     72 H32        -4.3060   -2.0350   -4.4510 hn        1 MOL      0.354989
     73 H33        -2.9410   -2.5440   -3.4660 hn        1 MOL      0.354989
     74 N8         -5.7280   -1.6370    0.4910 n         1 MOL      0.010371
     75 C23        -5.8020   -2.5040    1.6930 c3        1 MOL     -0.293779
     76 C24        -4.4540   -3.3430    1.8170 c         1 MOL      0.590360
     77 O12        -4.5400   -4.2870    2.5820 o         1 MOL     -0.551475
     78 H34        -4.9740   -0.9990    0.3230 hn        1 MOL      0.065793
     79 H35        -6.6670   -3.1610    1.6520 h1        1 MOL      0.143822
     80 H36        -5.8750   -1.8640    2.5750 h1        1 MOL      0.143822
     81 N9         -3.4060   -3.1350    1.0170 n         1 MOL     -0.516010
     82 C25        -2.1530   -3.8930    0.8870 c3        1 MOL      0.480754
     83 C26        -1.0010   -2.9790    0.8180 c         1 MOL      0.356428
     84 O13        -1.0950   -1.9060    0.2610 o         1 MOL     -0.624750
     85 C27        -2.2210   -4.7770   -0.3540 c3        1 MOL      0.066737
     86 C28        -3.5050   -5.6650   -0.3830 ca        1 MOL     -0.166390
     87 C29        -4.7730   -5.2550   -0.8150 ca        1 MOL      0.005787
     88 C30        -3.3890   -6.9880    0.1190 ca        1 MOL      0.005787
     89 C31        -5.8970   -6.0580   -0.6070 ca        1 MOL     -0.377419
     90 C32        -4.4690   -7.9050    0.1630 ca        1 MOL     -0.377419
     91 C33        -5.8010   -7.3780   -0.1270 ca        1 MOL      0.437740
     92 O14        -6.9400   -8.0560    0.2110 oh        1 MOL     -0.501428
     93 H37        -3.3860   -2.3170    0.4310 hn        1 MOL      0.343945
     94 H38        -2.0950   -4.4550    1.8210 h1        1 MOL     -0.050420
     95 H39        -1.3680   -5.4380   -0.2270 hc        1 MOL     -0.053999
     96 H40        -2.0900   -4.1460   -1.2330 hc        1 MOL     -0.053999
     97 H41        -4.8140   -4.2760   -1.2600 ha        1 MOL      0.081143
     98 H42        -2.4360   -7.4200    0.3770 ha        1 MOL      0.081143
     99 H43        -6.8960   -5.6730   -0.7800 ha        1 MOL      0.169718
    100 H44        -4.3690   -8.9140    0.5330 ha        1 MOL      0.169718
    101 H45        -6.8210   -8.8870    0.6610 ho        1 MOL      0.377255
    102 N10         0.0990   -3.3890    1.4060 n         1 MOL     -0.531238
    103 C34         1.4240   -2.6640    1.3080 c3        1 MOL      0.050142
    104 C35         2.5950   -3.5980    0.8480 c         1 MOL      0.458379
    105 O15         2.9620   -4.4170    1.6620 o         1 MOL     -0.490393
    106 C36         1.6760   -1.9450    2.6750 c3        1 MOL     -0.050511
    107 C37         0.6220   -0.7770    2.7780 c3        1 MOL      0.209239
    108 C38         3.1150   -1.5610    2.9180 c3        1 MOL      0.034808
    109 C39         0.6080   -0.1620    4.0810 c3        1 MOL     -0.254171
    110 H46         0.0950   -4.2810    1.8820 hn        1 MOL      0.335289
    111 H47         1.3500   -1.8590    0.5700 h1        1 MOL      0.143940
    112 H48         1.4680   -2.7010    3.4350 hc        1 MOL      0.022486
    113 H49        -0.4100   -1.0590    2.5690 hc        1 MOL      0.009614
    114 H50         0.7500   -0.0280    1.9930 hc        1 MOL      0.009614
    115 H51         3.3140   -1.0480    3.8580 hc        1 MOL     -0.003988
    116 H52         3.7250   -2.4580    2.9650 hc        1 MOL     -0.003988
    117 H53         3.3910   -0.9490    2.0590 hc        1 MOL     -0.003988
    118 H54         1.5220    0.4280    4.2180 hc        1 MOL      0.048336
    119 H55        -0.1660    0.5990    4.1590 hc        1 MOL      0.048336
    120 H56         0.2620   -0.8230    4.8750 hc        1 MOL      0.048336
    121 N11         3.2210   -3.3940   -0.3300 n         1 MOL     -0.432395
    122 C40         4.5030   -4.0980   -0.6880 c3        1 MOL      0.049037
    123 C41         5.6800   -3.3860    0.0230 c         1 MOL      0.267105
    124 O16         5.5080   -2.3230    0.6110 o         1 MOL     -0.191067
    125 C42         4.6720   -4.0730   -2.1830 c3        1 MOL      0.001682
    126 O17         5.0300   -2.9000   -2.7810 oh        1 MOL     -0.507400
    127 H57         2.7770   -2.7150   -0.9370 hn        1 MOL      0.292107
    128 H58         4.4190   -5.1060   -0.2820 h1        1 MOL      0.089394
    129 H59         3.6890   -4.3800   -2.5160 h1        1 MOL      0.061884
    130 H60         5.4570   -4.8140   -2.3670 h1        1 MOL      0.061884
    131 H61         4.1660   -2.4900   -2.8790 ho        1 MOL      0.402058
    132 N12         6.8940   -3.9880   -0.0010 n         1 MOL     -0.276046
    133 C43         8.1670   -3.5240    0.5660 c3        1 MOL     -0.046809
    134 C44         8.6070   -2.2180   -0.0830 c         1 MOL      0.529138
    135 O18         9.1930   -1.4280    0.6720 o         1 MOL     -0.543886
    136 C45         9.1970   -4.6550    0.4180 c3        1 MOL     -0.255974
    137 H62         6.9370   -4.9400   -0.3210 hn        1 MOL      0.245271
    138 H63         7.9930   -3.2960    1.6140 h1        1 MOL      0.133047
    139 H64         8.9620   -5.5740    0.9640 hc        1 MOL      0.091483
    140 H65         9.5010   -4.8760   -0.6100 hc        1 MOL      0.091483
    141 H66        10.1660   -4.3340    0.7940 hc        1 MOL      0.091483
    142 N13         8.2010   -1.8880   -1.3140 n         1 MOL     -0.360336
    143 C46         8.4310   -0.6410   -2.0760 c3        1 MOL      0.064605
    144 C47         7.4520    0.5000   -1.6930 c         1 MOL      0.512952
    145 O19         7.8120    1.6670   -1.7240 o         1 MOL     -0.524366
    146 C48         8.5170   -1.0450   -3.5600 c3        1 MOL     -0.159345
    147 H67         7.7220   -2.6560   -1.7610 hn        1 MOL      0.265583
    148 H68         9.4380   -0.2710   -1.8780 h1        1 MOL      0.086224
    149 H69         7.5110   -1.0590   -3.9890 hc        1 MOL      0.050704
    150 H70         8.9790   -0.2640   -4.1620 hc        1 MOL      0.050704
    151 H71         8.9650   -2.0310   -3.6720 hc        1 MOL      0.050704
    152 N14         6.2520    0.1110   -1.2180 n         1 MOL     -0.354560
    153 C49         5.4000    1.0850   -0.4840 c3        1 MOL      0.044946
    154 C50         5.8620    1.2260    1.0090 c         1 MOL      0.404579
    155 O20         5.9670    2.3520    1.5140 o         1 MOL     -0.545718
    156 C51         3.9260    0.6240   -0.5630 c3        1 MOL      0.064612
    157 C52         2.7500    1.5350   -0.1100 c3        1 MOL     -0.223246
    158 C53         1.4060    1.0670   -0.6860 c         1 MOL      0.753536
    159 O21         0.3500    1.7350   -0.5240 o         1 MOL     -0.744768
    160 O22         1.3190   -0.0360   -1.2120 o         1 MOL     -0.744768
    161 H72         5.9630   -0.8480   -1.2610 hn        1 MOL      0.143773
    162 H73         5.4240    2.0510   -1.0040 h1        1 MOL      0.065867
    163 H74         3.8870   -0.3140   -0.0170 hc        1 MOL     -0.009728
    164 H75         3.8200    0.4490   -1.6380 hc        1 MOL     -0.009728
    165 H76         3.0430    2.5450   -0.4150 hc        1 MOL      0.055261
    166 H77         2.6540    1.5770    0.9750 hc        1 MOL      0.055261
    167 N15         6.2070    0.1350    1.7250 n         1 MOL      0.007271
    168 C54         6.5900    0.2170    3.1610 c3        1 MOL     -0.285050
    169 H78         5.8900    0.8670    3.6860 h1        1 MOL      0.110385
    170 H79         6.5620   -0.7790    3.6020 h1        1 MOL      0.110385
    171 H80         7.5970    0.6250    3.2460 h1        1 MOL      0.110385
    172 H81         5.9920   -0.7620    1.3070 hn        1 MOL     -0.012749
    173 Ca1        -1.5270    0.1800   -1.4120 Ca        1 MOL      1.763514
    174 O23        -0.9700   -2.2140   -2.7750 oh        1 MOL     -0.916257
    175 H82        -1.3490   -2.8020   -3.4220 ho        1 MOL      0.443534
    176 H83        -0.1880   -2.6710   -2.4520 ho        1 MOL      0.443534
@<TRIPOS>BOND
     1    1    2 1   
     2    1    4 1   
     3    1    5 1   
     4    1    6 1   
     5    2    3 2   
     6    2    7 1   
     7    7    8 1   
     8    7   15 1   
     9    8    9 1   
    10    8   11 1   
    11    8   16 1   
    12    9   10 2   
    13    9   19 1   
    14   11   12 1   
    15   11   17 1   
    16   11   18 1   
    17   12   13 1   
    18   12   14 1   
    19   19   20 1   
    20   19   28 1   
    21   20   21 1   
    22   20   23 1   
    23   20   29 1   
    24   21   22 2   
    25   21   41 1   
    26   23   24 1   
    27   23   30 1   
    28   23   31 1   
    29   24   25 1   
    30   24   32 1   
    31   24   33 1   
    32   25   26 1   
    33   25   34 1   
    34   25   35 1   
    35   26   27 1   
    36   26   36 1   
    37   26   37 1   
    38   27   38 1   
    39   27   39 1   
    40   27   40 1   
    41   41   42 1   
    42   41   49 1   
    43   42   43 1   
    44   42   45 1   
    45   42   50 1   
    46   43   44 2   
    47   43   53 1   
    48   45   46 1   
    49   45   51 1   
    50   45   52 1   
    51   46   47 1   
    52   46   48 1   
    53   53   54 1   
    54   53   57 1   
    55   54   55 1   
    56   54   58 1   
    57   54   59 1   
    58   55   56 2   
    59   55   60 1   
    60   60   61 1   
    61   60   68 1   
    62   61   62 1   
    63   61   64 1   
    64   61   69 1   
    65   62   63 2   
    66   62   74 1   
    67   64   65 1   
    68   64   70 1   
    69   64   71 1   
    70   65   66 1   
    71   65   67 2   
    72   66   72 1   
    73   66   73 1   
    74   74   75 1   
    75   74   78 1   
    76   75   76 1   
    77   75   79 1   
    78   75   80 1   
    79   76   77 2   
    80   76   81 1   
    81   81   82 1   
    82   81   93 1   
    83   82   83 1   
    84   82   85 1   
    85   82   94 1   
    86   83   84 2   
    87   83  102 1   
    88   85   86 1   
    89   85   95 1   
    90   85   96 1   
    91   86   87 ar  
    92   86   88 ar  
    93   87   89 ar  
    94   87   97 1   
    95   88   90 ar  
    96   88   98 1   
    97   89   91 ar  
    98   89   99 1   
    99   90   91 ar  
   100   90  100 1   
   101   91   92 1   
   102   92  101 1   
   103  102  103 1   
   104  102  110 1   
   105  103  104 1   
   106  103  106 1   
   107  103  111 1   
   108  104  105 2   
   109  104  121 1   
   110  106  107 1   
   111  106  108 1   
   112  106  112 1   
   113  107  109 1   
   114  107  113 1   
   115  107  114 1   
   116  108  115 1   
   117  108  116 1   
   118  108  117 1   
   119  109  118 1   
   120  109  119 1   
   121  109  120 1   
   122  121  122 1   
   123  121  127 1   
   124  122  123 1   
   125  122  125 1   
   126  122  128 1   
   127  123  124 2   
   128  123  132 1   
   129  125  126 1   
   130  125  129 1   
   131  125  130 1   
   132  126  131 1   
   133  132  133 1   
   134  132  137 1   
   135  133  134 1   
   136  133  136 1   
   137  133  138 1   
   138  134  135 2   
   139  134  142 1   
   140  136  139 1   
   141  136  140 1   
   142  136  141 1   
   143  142  143 1   
   144  142  147 1   
   145  143  144 1   
   146  143  146 1   
   147  143  148 1   
   148  144  145 2   
   149  144  152 1   
   150  146  149 1   
   151  146  150 1   
   152  146  151 1   
   153  152  153 1   
   154  152  161 1   
   155  153  154 1   
   156  153  156 1   
   157  153  162 1   
   158  154  155 2   
   159  154  167 1   
   160  156  157 1   
   161  156  163 1   
   162  156  164 1   
   163  157  158 1   
   164  157  165 1   
   165  157  166 1   
   166  158  159 1   
   167  158  160 1   
   168  167  168 1   
   169  167  172 1   
   170  168  169 1   
   171  168  170 1   
   172  168  171 1   
   173  174  175 1   
   174  174  176 1   
@<TRIPOS>SUBSTRUCTURE
     1 MOL         1 TEMP              0 ****  ****    0 ROOT
