@<TRIPOS>MOLECULE
MOL
  175   173     1     0     0
SMALL
resp


@<TRIPOS>ATOM
      1 C1          0.7050    3.9850    5.3480 c3        1 MOL     -0.331744
      2 C2          0.0350    3.8530    3.9730 c         1 MOL      0.712968
      3 O1          0.6990    3.8310    2.9490 o         1 MOL     -0.545421
      4 H1          0.6260    3.0370    5.8810 hc        1 MOL      0.079437
      5 H2          1.7550    4.2420    5.2180 hc        1 MOL      0.079437
      6 H3          0.2060    4.7660    5.9230 hc        1 MOL      0.079437
      7 N1         -1.3050    3.8360    3.8620 n         1 MOL     -0.653054
      8 C3         -2.0850    3.5490    2.6430 c3        1 MOL      0.236850
      9 C4         -2.1700    4.7640    1.7080 c         1 MOL      0.526608
     10 O2         -2.4060    5.9140    2.1390 o         1 MOL     -0.596886
     11 C5         -3.5700    3.1180    3.0390 c3        1 MOL     -0.388341
     12 C6         -4.3220    2.5510    1.7960 c         1 MOL      0.744910
     13 O3         -5.5640    2.5560    1.8190 o         1 MOL     -0.666076
     14 O4         -3.6970    2.1480    0.7390 o         1 MOL     -0.666076
     15 H4         -1.8300    3.9600    4.7180 hn        1 MOL      0.304925
     16 H5         -1.5690    2.7100    2.1760 h1        1 MOL      0.087043
     17 H6         -4.0370    4.0210    3.4140 hc        1 MOL      0.089085
     18 H7         -3.5060    2.3790    3.8380 hc        1 MOL      0.089085
     19 N2         -1.9590    4.5030    0.4110 n         1 MOL     -0.308298
     20 C7         -2.1410    5.4530   -0.7050 c3        1 MOL      0.218278
     21 C8         -3.0890    5.0200   -1.9050 c         1 MOL      0.512458
     22 O5         -3.0550    5.6360   -2.9550 o         1 MOL     -0.542931
     23 C9         -0.6840    5.8710   -1.1330 c3        1 MOL     -0.274094
     24 H8         -1.5790    3.5860    0.2170 hn        1 MOL      0.159536
     25 H9         -2.6220    6.3420   -0.3240 h1        1 MOL      0.013545
     26 H10        -0.8170    6.7060   -1.8200 hc        1 MOL      0.063544
     27 H11        -0.0330    6.0900   -0.2830 hc        1 MOL      0.063544
     28 H12        -0.1030    5.0960   -1.6450 hc        1 MOL      0.063544
     29 N3         -3.9920    4.0430   -1.6570 n         1 MOL     -0.413320
     30 C10        -4.9120    3.3920   -2.6570 c3        1 MOL      0.037801
     31 C11        -6.2100    2.6950   -2.2270 c         1 MOL      0.418064
     32 O6         -7.1570    2.6780   -2.9960 o         1 MOL     -0.578833
     33 C12        -4.0920    2.3780   -3.4950 c3        1 MOL     -0.159819
     34 C13        -3.3280    1.2750   -2.7670 c         1 MOL      0.709149
     35 O7         -2.0720    1.1530   -2.8810 o         1 MOL     -0.692673
     36 O8         -4.0280    0.5760   -2.0150 o         1 MOL     -0.692673
     37 H13        -4.1330    3.8050   -0.6800 hn        1 MOL      0.190080
     38 H14        -5.1860    4.2210   -3.2920 h1        1 MOL      0.082426
     39 H15        -3.3770    2.9090   -4.1160 hc        1 MOL      0.044120
     40 H16        -4.7480    1.8860   -4.2170 hc        1 MOL      0.044120
     41 N4         -6.3940    2.1680   -1.0350 n         1 MOL     -0.112442
     42 C14        -7.5530    1.4430   -0.5930 c3        1 MOL     -0.220441
     43 C15        -7.6360   -0.0460   -1.0490 c         1 MOL      0.541897
     44 O9         -8.6080   -0.7400   -0.8470 o         1 MOL     -0.629610
     45 H17        -5.6170    2.3690   -0.4140 hn        1 MOL      0.180545
     46 H18        -8.4370    2.0150   -0.8770 h1        1 MOL      0.108521
     47 H19        -7.6130    1.5550    0.4970 h1        1 MOL      0.108521
     48 N5         -6.4960   -0.5840   -1.4560 n         1 MOL     -0.229210
     49 C16        -6.4320   -1.9630   -2.0390 c3        1 MOL      0.024080
     50 C17        -6.3450   -3.1260   -1.0510 c         1 MOL      0.397162
     51 O10        -6.0870   -4.2580   -1.4900 o         1 MOL     -0.497572
     52 C18        -5.2680   -1.9930   -3.1000 c3        1 MOL     -0.215911
     53 C19        -3.8350   -2.1970   -2.6520 c         1 MOL      0.545963
     54 N6         -2.9580   -2.5150   -3.5670 n         1 MOL     -0.565806
     55 O11        -3.4830   -2.2590   -1.4820 o         1 MOL     -0.588172
     56 H20        -5.6390   -0.0820   -1.2550 hn        1 MOL      0.168079
     57 H21        -7.3100   -2.1390   -2.6550 h1        1 MOL      0.117736
     58 H22        -5.2260   -1.0440   -3.6370 hc        1 MOL      0.062247
     59 H23        -5.6200   -2.7650   -3.8000 hc        1 MOL      0.062247
     60 H24        -3.2620   -2.4020   -4.5190 hn        1 MOL      0.289950
     61 H25        -1.9630   -2.5810   -3.3600 hn        1 MOL      0.289950
     62 N7         -6.5310   -2.8960    0.2790 n         1 MOL     -0.297707
     63 C20        -6.5300   -3.8930    1.3120 c3        1 MOL     -0.225585
     64 C21        -5.1530   -4.3740    1.8530 c         1 MOL      0.481954
     65 O12        -5.1310   -5.0890    2.8600 o         1 MOL     -0.576164
     66 H26        -6.7600   -1.9430    0.5240 hn        1 MOL      0.305129
     67 H27        -7.1330   -4.7630    1.0880 h1        1 MOL      0.118073
     68 H28        -7.0070   -3.4250    2.1760 h1        1 MOL      0.118073
     69 N8         -4.0440   -4.0760    1.1570 n         1 MOL     -0.288920
     70 C22        -2.6240   -4.4180    1.4280 c3        1 MOL     -0.064501
     71 C23        -1.5620   -3.3070    1.5270 c         1 MOL      0.138455
     72 O13        -1.8150   -2.2380    0.9190 o         1 MOL     -0.218022
     73 C24        -2.1500   -5.3410    0.3030 c3        1 MOL      0.561143
     74 C25        -2.8290   -6.7230    0.2720 c3        1 MOL     -0.419315
     75 O14        -2.4190   -4.7120   -0.9130 oh        1 MOL     -0.644628
     76 H29        -4.2000   -3.5130    0.3260 hn        1 MOL      0.380414
     77 H30        -2.6070   -5.0950    2.2880 h1        1 MOL      0.061727
     78 H31        -1.0830   -5.5150    0.4500 h1        1 MOL     -0.076607
     79 H32        -1.9160   -3.8980   -1.0250 ho        1 MOL      0.394395
     80 H33        -3.9040   -6.5910    0.1160 hc        1 MOL      0.099843
     81 H34        -2.3810   -7.2450   -0.5720 hc        1 MOL      0.099843
     82 H35        -2.5670   -7.2670    1.1810 hc        1 MOL      0.099843
     83 N9         -0.4880   -3.5580    2.3100 n         1 MOL     -0.241639
     84 C26         0.8250   -2.8010    2.0680 c3        1 MOL     -0.116235
     85 C27         1.4580   -3.1480    0.7100 c         1 MOL      0.458934
     86 O15         1.6520   -4.3350    0.3790 o         1 MOL     -0.558511
     87 C28         1.8480   -2.9220    3.2870 c3        1 MOL     -0.012332
     88 C29         1.1660   -2.1120    4.4770 c3        1 MOL      0.224368
     89 C30         3.2870   -2.5180    3.0790 c3        1 MOL     -0.016768
     90 C31         1.7090   -2.5950    5.8160 c3        1 MOL     -0.325163
     91 H36        -0.4770   -4.3690    2.9050 hn        1 MOL      0.252838
     92 H37         0.4510   -1.7830    2.0260 h1        1 MOL      0.038868
     93 H38         1.8830   -3.9320    3.7000 hc        1 MOL      0.033201
     94 H39         0.0810   -2.1910    4.3550 hc        1 MOL     -0.040335
     95 H40         1.3020   -1.0430    4.3010 hc        1 MOL     -0.040335
     96 H41         3.8390   -3.2420    2.4930 hc        1 MOL      0.005808
     97 H42         3.2870   -1.5040    2.6970 hc        1 MOL      0.005808
     98 H43         3.8340   -2.4700    4.0290 hc        1 MOL      0.005808
     99 H44         1.1610   -2.1280    6.6330 hc        1 MOL      0.068023
    100 H45         1.6380   -3.6750    5.8410 hc        1 MOL      0.068023
    101 H46         2.7200   -2.1890    5.9480 hc        1 MOL      0.068023
    102 N10         1.9800   -2.1300    0.0380 n         1 MOL     -0.171553
    103 C32         2.6660   -2.1540   -1.2720 c3        1 MOL      0.037438
    104 C33         4.1300   -1.5210   -1.0500 c         1 MOL      0.520924
    105 O16         4.4300   -1.0540    0.0280 o         1 MOL     -0.486391
    106 C34         1.8180   -1.4070   -2.3680 c3        1 MOL     -0.184650
    107 C35         0.3130   -1.6230   -2.2720 c         1 MOL      0.668789
    108 O17        -0.2840   -1.1680   -1.2780 o         1 MOL     -0.644804
    109 O18        -0.2440   -2.1610   -3.2450 o         1 MOL     -0.644804
    110 H47         1.6360   -1.2280    0.3360 hn        1 MOL      0.246077
    111 H48         2.8070   -3.2060   -1.5390 h1        1 MOL      0.062411
    112 H49         2.2110   -1.6570   -3.3590 hc        1 MOL      0.046011
    113 H50         2.0100   -0.3320   -2.3730 hc        1 MOL      0.046011
    114 N11         5.1290   -1.7580   -1.9660 n         1 MOL     -0.671331
    115 C36         6.5210   -1.4840   -1.6250 c3        1 MOL      0.442452
    116 C37         6.8140    0.0020   -1.2790 c         1 MOL      0.328900
    117 O19         7.5090    0.2070   -0.2650 o         1 MOL     -0.498818
    118 C38         7.5880   -2.0360   -2.6130 c3        1 MOL     -0.316999
    119 C39         9.0620   -1.7850   -2.2920 ca        1 MOL      0.246256
    120 C40         9.9840   -1.1600   -3.1380 ca        1 MOL     -0.287105
    121 C41         9.5380   -2.2200   -1.0230 ca        1 MOL     -0.287105
    122 C42        11.3090   -0.9340   -2.7190 ca        1 MOL      0.030700
    123 C43        10.8290   -1.9470   -0.5480 ca        1 MOL      0.030700
    124 C44        11.7300   -1.3280   -1.4290 ca        1 MOL     -0.271658
    125 H51         4.9870   -2.3480   -2.7840 hn        1 MOL      0.329086
    126 H52         6.8230   -2.0110   -0.7190 h1        1 MOL      0.045158
    127 H53         7.4200   -1.6610   -3.6230 hc        1 MOL      0.071511
    128 H54         7.4770   -3.1170   -2.5100 hc        1 MOL      0.071511
    129 H55         9.6380   -1.0590   -4.1600 ha        1 MOL      0.131197
    130 H56         8.8370   -2.6870   -0.3640 ha        1 MOL      0.131197
    131 H57        11.9840   -0.5520   -3.4660 ha        1 MOL      0.083289
    132 H58        11.1660   -2.2260    0.4430 ha        1 MOL      0.083289
    133 H59        12.7160   -1.1810   -1.0030 ha        1 MOL      0.137426
    134 N12         6.2780    1.0340   -1.9640 n         1 MOL     -0.116814
    135 C45         6.4730    2.3990   -1.4550 c3        1 MOL     -0.024701
    136 C46         5.8110    2.6510   -0.0660 c         1 MOL      0.300836
    137 O20         6.1580    3.6350    0.5950 o         1 MOL     -0.501956
    138 C47         5.9340    3.4500   -2.5230 c3        1 MOL     -0.147536
    139 C48         4.9170    2.5150   -3.3310 c3        1 MOL     -0.027391
    140 C49         5.4490    1.0860   -3.1920 c3        1 MOL      0.079062
    141 H60         7.5620    2.4550   -1.3780 h1        1 MOL      0.086570
    142 H61         5.4810    4.3450   -2.0890 hc        1 MOL      0.078852
    143 H62         6.7370    3.8510   -3.1350 hc        1 MOL      0.078852
    144 H63         3.9980    2.4590   -2.7460 hc        1 MOL      0.033268
    145 H64         4.7410    2.7400   -4.3820 hc        1 MOL      0.033268
    146 H65         4.6630    0.3410   -3.1660 h1        1 MOL     -0.000597
    147 H66         6.1320    0.8610   -4.0020 h1        1 MOL     -0.000597
    148 N13         4.8480    1.8350    0.3980 n         1 MOL     -0.069494
    149 C50         4.1370    2.0170    1.6770 c3        1 MOL     -0.059598
    150 C51         4.9220    1.3420    2.8070 c         1 MOL      0.422349
    151 O21         5.2270    1.8500    3.8840 o         1 MOL     -0.547318
    152 C52         2.7300    1.4670    1.5830 c3        1 MOL     -0.140736
    153 C53         1.9470    2.0940    0.4940 c3        1 MOL     -0.237774
    154 C54         0.5000    1.5420    0.4790 c         1 MOL      0.555974
    155 O22        -0.3780    2.0730   -0.2660 o         1 MOL     -0.653402
    156 O23         0.0990    0.5310    1.0850 o         1 MOL     -0.653402
    157 H67         4.7030    0.9700   -0.1020 hn        1 MOL      0.171357
    158 H68         4.1070    3.0790    1.9350 h1        1 MOL      0.120991
    159 H69         2.2150    1.5430    2.5430 hc        1 MOL      0.078752
    160 H70         2.7190    0.3830    1.4250 hc        1 MOL      0.078752
    161 H71         2.2380    1.7970   -0.5130 hc        1 MOL      0.120770
    162 H72         1.9330    3.1770    0.5440 hc        1 MOL      0.120770
    163 N14         5.6440    0.2790    2.4530 n         1 MOL     -0.016229
    164 C55         6.6940   -0.2600    3.3160 c3        1 MOL     -0.300413
    165 H73         6.2820   -0.4640    4.3040 h1        1 MOL      0.102261
    166 H74         7.0810   -1.1840    2.8860 h1        1 MOL      0.102261
    167 H75         7.5020    0.4670    3.4030 h1        1 MOL      0.102261
    168 H76         5.2930   -0.2320    1.6590 hn        1 MOL      0.096178
    169 Ca1        -2.2370    0.1720   -0.1760 Ca        1 MOL      1.643062
    170 O24        -4.2960   -0.9820    1.3400 oh        1 MOL     -0.795837
    171 H77        -5.0820   -1.1750    1.8530 ho        1 MOL      0.363689
    172 H78        -3.6230   -1.5380    1.7240 ho        1 MOL      0.363689
    173 O25        -1.7430    0.1300    2.8820 oh        1 MOL     -0.795837
    174 H79        -0.8620    0.1740    2.5030 ho        1 MOL      0.363689
    175 H80        -1.7320    0.7660    3.6000 ho        1 MOL      0.363689
@<TRIPOS>BOND
     1    1    2 1   
     2    1    4 1   
     3    1    5 1   
     4    1    6 1   
     5    2    3 2   
     6    2    7 1   
     7    7    8 1   
     8    7   15 1   
     9    8    9 1   
    10    8   11 1   
    11    8   16 1   
    12    9   10 2   
    13    9   19 1   
    14   11   12 1   
    15   11   17 1   
    16   11   18 1   
    17   12   13 1   
    18   12   14 1   
    19   19   20 1   
    20   19   24 1   
    21   20   21 1   
    22   20   23 1   
    23   20   25 1   
    24   21   22 2   
    25   21   29 1   
    26   23   26 1   
    27   23   27 1   
    28   23   28 1   
    29   29   30 1   
    30   29   37 1   
    31   30   31 1   
    32   30   33 1   
    33   30   38 1   
    34   31   32 2   
    35   31   41 1   
    36   33   34 1   
    37   33   39 1   
    38   33   40 1   
    39   34   35 1   
    40   34   36 1   
    41   41   42 1   
    42   41   45 1   
    43   42   43 1   
    44   42   46 1   
    45   42   47 1   
    46   43   44 2   
    47   43   48 1   
    48   48   49 1   
    49   48   56 1   
    50   49   50 1   
    51   49   52 1   
    52   49   57 1   
    53   50   51 2   
    54   50   62 1   
    55   52   53 1   
    56   52   58 1   
    57   52   59 1   
    58   53   54 1   
    59   53   55 2   
    60   54   60 1   
    61   54   61 1   
    62   62   63 1   
    63   62   66 1   
    64   63   64 1   
    65   63   67 1   
    66   63   68 1   
    67   64   65 2   
    68   64   69 1   
    69   69   70 1   
    70   69   76 1   
    71   70   71 1   
    72   70   73 1   
    73   70   77 1   
    74   71   72 2   
    75   71   83 1   
    76   73   74 1   
    77   73   75 1   
    78   73   78 1   
    79   74   80 1   
    80   74   81 1   
    81   74   82 1   
    82   75   79 1   
    83   83   84 1   
    84   83   91 1   
    85   84   85 1   
    86   84   87 1   
    87   84   92 1   
    88   85   86 2   
    89   85  102 1   
    90   87   88 1   
    91   87   89 1   
    92   87   93 1   
    93   88   90 1   
    94   88   94 1   
    95   88   95 1   
    96   89   96 1   
    97   89   97 1   
    98   89   98 1   
    99   90   99 1   
   100   90  100 1   
   101   90  101 1   
   102  102  103 1   
   103  102  110 1   
   104  103  104 1   
   105  103  106 1   
   106  103  111 1   
   107  104  105 2   
   108  104  114 1   
   109  106  107 1   
   110  106  112 1   
   111  106  113 1   
   112  107  108 1   
   113  107  109 1   
   114  114  115 1   
   115  114  125 1   
   116  115  116 1   
   117  115  118 1   
   118  115  126 1   
   119  116  117 2   
   120  116  134 1   
   121  118  119 1   
   122  118  127 1   
   123  118  128 1   
   124  119  120 ar  
   125  119  121 ar  
   126  120  122 ar  
   127  120  129 1   
   128  121  123 ar  
   129  121  130 1   
   130  122  124 ar  
   131  122  131 1   
   132  123  124 ar  
   133  123  132 1   
   134  124  133 1   
   135  134  135 1   
   136  134  140 1   
   137  135  136 1   
   138  135  138 1   
   139  135  141 1   
   140  136  137 2   
   141  136  148 1   
   142  138  139 1   
   143  138  142 1   
   144  138  143 1   
   145  139  140 1   
   146  139  144 1   
   147  139  145 1   
   148  140  146 1   
   149  140  147 1   
   150  148  149 1   
   151  148  157 1   
   152  149  150 1   
   153  149  152 1   
   154  149  158 1   
   155  150  151 2   
   156  150  163 1   
   157  152  153 1   
   158  152  159 1   
   159  152  160 1   
   160  153  154 1   
   161  153  161 1   
   162  153  162 1   
   163  154  155 1   
   164  154  156 1   
   165  163  164 1   
   166  163  168 1   
   167  164  165 1   
   168  164  166 1   
   169  164  167 1   
   170  170  171 1   
   171  170  172 1   
   172  173  174 1   
   173  173  175 1   
@<TRIPOS>SUBSTRUCTURE
     1 MOL         1 TEMP              0 ****  ****    0 ROOT
