@<TRIPOS>MOLECULE
MOL
  183   181     1     0     0
SMALL
resp


@<TRIPOS>ATOM
      1 C1         -0.4760    1.9730    6.2840 c3        1 MOL     -0.357358
      2 C2         -0.8360    2.1080    4.8060 c         1 MOL      0.752950
      3 O1         -0.0730    2.7650    4.0550 o         1 MOL     -0.567876
      4 H1         -1.3710    1.7270    6.8540 hc        1 MOL      0.083994
      5 H2          0.2620    1.1810    6.4080 hc        1 MOL      0.083994
      6 H3         -0.0640    2.9150    6.6460 hc        1 MOL      0.083994
      7 N1         -2.0800    1.6120    4.4610 n         1 MOL     -0.659104
      8 C3         -2.5280    1.4580    3.0670 c3        1 MOL     -0.016342
      9 C4         -2.8360    2.8740    2.4760 c         1 MOL      0.658220
     10 O2         -3.6890    3.5950    2.9640 o         1 MOL     -0.621603
     11 C5         -3.8040    0.5460    3.0020 c3        1 MOL     -0.104754
     12 C6         -4.3930    0.3130    1.6470 c         1 MOL      0.698267
     13 O3         -5.4840   -0.3440    1.6180 o         1 MOL     -0.670550
     14 O4         -3.7470    0.7690    0.6990 o         1 MOL     -0.670550
     15 H4         -2.7390    1.2140    5.1140 hn        1 MOL      0.347619
     16 H5         -1.6780    0.9720    2.5780 h1        1 MOL      0.056534
     17 H6         -4.5310    0.9840    3.6810 hc        1 MOL      0.030295
     18 H7         -3.7460   -0.4560    3.4360 hc        1 MOL      0.030295
     19 N2         -2.2150    3.3070    1.3670 n         1 MOL     -0.027100
     20 C7         -2.4190    4.7230    0.8550 c3        1 MOL     -0.025806
     21 C8         -3.4820    4.7190   -0.2520 c         1 MOL      0.386441
     22 O5         -4.3650    5.6380   -0.1750 o         1 MOL     -0.542875
     23 C9         -0.9460    5.3120    0.5310 c3        1 MOL      0.227889
     24 C10         0.1450    5.1860    1.6620 c3        1 MOL     -0.041956
     25 C11        -0.9590    6.6740   -0.0830 c3        1 MOL     -0.333539
     26 C12        -0.0760    5.9320    2.9770 c3        1 MOL     -0.127809
     27 H8         -1.5700    2.6820    0.8920 hn        1 MOL     -0.018078
     28 H9         -2.7870    5.3480    1.6710 h1        1 MOL      0.069723
     29 H10        -0.5190    4.6480   -0.2160 hc        1 MOL     -0.028503
     30 H11         1.0490    5.6780    1.2970 hc        1 MOL      0.039523
     31 H12         0.3930    4.1320    1.7550 hc        1 MOL      0.039523
     32 H13        -1.4610    7.3840    0.5700 hc        1 MOL      0.066406
     33 H14         0.0290    7.0340   -0.3580 hc        1 MOL      0.066406
     34 H15        -1.5790    6.6960   -0.9720 hc        1 MOL      0.066406
     35 H16         0.7270    5.8350    3.7100 hc        1 MOL      0.019660
     36 H17        -0.2980    6.9910    2.8700 hc        1 MOL      0.019660
     37 H18        -0.9660    5.4690    3.4060 hc        1 MOL      0.019660
     38 N3         -3.5180    3.7470   -1.2210 n         1 MOL     -0.358734
     39 C13        -4.6070    3.7540   -2.2530 c3        1 MOL      0.196946
     40 C14        -5.9200    3.1150   -1.7190 c         1 MOL      0.305830
     41 O6         -6.9740    3.3290   -2.3270 o         1 MOL     -0.541564
     42 C15        -4.2190    3.2060   -3.6470 c3        1 MOL     -0.344552
     43 C16        -3.3050    1.9620   -3.5460 c         1 MOL      0.847577
     44 O7         -2.5200    1.7030   -4.5280 o         1 MOL     -0.723075
     45 O8         -3.3810    1.1830   -2.5980 o         1 MOL     -0.723075
     46 H19        -2.9330    2.9260   -1.1950 hn        1 MOL      0.219853
     47 H20        -4.8370    4.7970   -2.4440 h1        1 MOL      0.073153
     48 H21        -3.6010    3.8930   -4.2300 hc        1 MOL      0.077101
     49 H22        -5.0910    2.9500   -4.2470 hc        1 MOL      0.077101
     50 N4         -5.8660    2.3870   -0.5850 n         1 MOL      0.029018
     51 C17        -7.1540    2.0060    0.1500 c3        1 MOL     -0.339312
     52 C18        -7.8190    0.8690   -0.4280 c         1 MOL      0.673480
     53 O9         -9.0440    0.7770   -0.4550 o         1 MOL     -0.627566
     54 H23        -4.9310    2.2120   -0.2590 hn        1 MOL      0.096385
     55 H24        -7.9370    2.7640    0.0540 h1        1 MOL      0.124372
     56 H25        -6.9050    1.7420    1.1800 h1        1 MOL      0.124372
     57 N5         -7.0320   -0.0880   -0.9010 n         1 MOL     -0.256000
     58 C19        -7.4570   -1.3170   -1.5250 c3        1 MOL     -0.006745
     59 C20        -7.7110   -2.4570   -0.5350 c         1 MOL      0.436488
     60 O10        -8.5430   -3.3480   -0.8580 o         1 MOL     -0.585185
     61 C21        -6.4790   -1.7570   -2.5940 c3        1 MOL     -0.119899
     62 C22        -5.0080   -1.9130   -2.3240 c         1 MOL      0.844656
     63 O11        -4.2290   -2.1280   -3.2690 o         1 MOL     -0.770783
     64 O12        -4.6520   -1.7430   -1.1310 o         1 MOL     -0.770783
     65 H26        -6.0490   -0.1060   -0.6830 hn        1 MOL      0.083828
     66 H27        -8.3990   -1.1030   -2.0310 h1        1 MOL      0.085601
     67 H28        -6.5060   -1.1090   -3.4690 hc        1 MOL      0.024473
     68 H29        -6.8930   -2.7100   -2.9070 hc        1 MOL      0.024473
     69 N6         -7.1780   -2.4290    0.6690 n         1 MOL     -0.185116
     70 C23        -7.1760   -3.5630    1.5810 c3        1 MOL     -0.106782
     71 C24        -5.8510   -4.2900    1.5490 c         1 MOL      0.508799
     72 O13        -5.7630   -5.3990    2.0370 o         1 MOL     -0.614535
     73 H30        -6.7420   -1.5640    0.9300 hn        1 MOL      0.209715
     74 H31        -7.9430   -4.2880    1.2790 h1        1 MOL      0.077477
     75 H32        -7.4350   -3.2470    2.5850 h1        1 MOL      0.077477
     76 N7         -4.7700   -3.8040    0.9620 n         1 MOL     -0.044406
     77 C25        -3.3790   -4.2840    1.0590 c3        1 MOL     -0.116514
     78 C26        -2.2120   -3.2950    1.3100 c         1 MOL      0.636281
     79 O14        -2.3680   -2.0860    1.1610 o         1 MOL     -0.624727
     80 C27        -3.1120   -5.3640   -0.1140 c3        1 MOL     -0.120046
     81 C28        -3.1560   -4.8980   -1.5240 c3        1 MOL      0.036847
     82 C29        -2.0140   -4.0250   -2.0400 c         1 MOL      0.576293
     83 N8         -1.4670   -4.4320   -3.1920 n         1 MOL     -0.726222
     84 O15        -1.5020   -3.1350   -1.3680 o         1 MOL     -0.609221
     85 H33        -4.8680   -2.8760    0.5720 hn        1 MOL      0.128590
     86 H34        -3.2100   -4.9370    1.9200 h1        1 MOL      0.039032
     87 H35        -3.9500   -6.0610   -0.0850 hc        1 MOL      0.043503
     88 H36        -2.1270   -5.8100    0.0300 hc        1 MOL      0.043503
     89 H37        -4.1100   -4.3760   -1.6230 hc        1 MOL      0.008537
     90 H38        -3.1910   -5.7910   -2.1440 hc        1 MOL      0.008537
     91 H39        -1.7070   -5.3030   -3.6390 hn        1 MOL      0.338758
     92 H40        -0.9890   -3.7320   -3.7410 hn        1 MOL      0.338758
     93 N9         -1.0530   -3.7990    1.6890 n         1 MOL     -0.437102
     94 C30         0.1320   -2.9210    1.8150 c3        1 MOL      0.009994
     95 C31         1.2750   -3.4900    0.9410 c         1 MOL      0.503002
     96 O16         1.7390   -4.5770    1.2890 o         1 MOL     -0.616454
     97 C32         0.5890   -2.7160    3.2710 c3        1 MOL      0.210666
     98 C33         1.8770   -1.8420    3.3100 c3        1 MOL     -0.246633
     99 C34        -0.5260   -1.9520    4.0920 c3        1 MOL     -0.246633
    100 H41        -0.9330   -4.7990    1.8390 hn        1 MOL      0.298060
    101 H42        -0.0220   -1.8710    1.5610 h1        1 MOL      0.078497
    102 H43         0.7760   -3.6860    3.7270 hc        1 MOL     -0.041823
    103 H44         2.3920   -1.9740    4.2590 hc        1 MOL      0.051975
    104 H45         2.5760   -2.1450    2.5250 hc        1 MOL      0.051975
    105 H46         1.5120   -0.8190    3.2610 hc        1 MOL      0.051975
    106 H47        -1.3880   -2.6260    4.1350 hc        1 MOL      0.051975
    107 H48        -0.1940   -1.8690    5.1280 hc        1 MOL      0.051975
    108 H49        -0.7930   -0.9900    3.6570 hc        1 MOL      0.051975
    109 N10         1.6870   -2.7600   -0.0400 n         1 MOL     -0.144477
    110 C35         2.9160   -3.0860   -0.8090 c3        1 MOL      0.045258
    111 C36         4.1470   -2.2520   -0.3480 c         1 MOL      0.544952
    112 O17         4.0420   -1.3310    0.4200 o         1 MOL     -0.402376
    113 C37         2.6140   -2.9630   -2.3120 c3        1 MOL     -0.271690
    114 C38         2.6560   -1.5040   -2.8860 c         1 MOL      0.632945
    115 N11         1.5590   -0.9340   -3.2630 n         1 MOL     -0.788757
    116 O18         3.7350   -0.9430   -3.0320 o         1 MOL     -0.570365
    117 H50         1.1160   -1.9600   -0.2890 hn        1 MOL      0.123169
    118 H51         3.2380   -4.1080   -0.6260 h1        1 MOL      0.039634
    119 H52         1.7460   -3.5110   -2.6810 hc        1 MOL      0.077368
    120 H53         3.4400   -3.4830   -2.8060 hc        1 MOL      0.077368
    121 H54         0.6430   -1.3560   -3.2460 hn        1 MOL      0.380989
    122 H55         1.6450   -0.0220   -3.6860 hn        1 MOL      0.380989
    123 N12         5.3230   -2.5480   -0.9370 n         1 MOL     -0.641287
    124 C39         6.6100   -2.1360   -0.3900 c3        1 MOL      0.199223
    125 C40         6.7180   -0.5630   -0.4340 c         1 MOL      0.618782
    126 O19         7.2360   -0.0420    0.5260 o         1 MOL     -0.503374
    127 C41         7.8730   -2.6410   -1.1420 c3        1 MOL     -0.192974
    128 C42         9.1340   -2.2540   -0.5600 ca        1 MOL      0.088353
    129 C43         9.3920   -2.7050    0.7400 ca        1 MOL     -0.190800
    130 C44        10.1220   -1.5290   -1.2550 ca        1 MOL     -0.190800
    131 C45        10.5850   -2.2620    1.3430 ca        1 MOL     -0.260072
    132 C46        11.3150   -1.1020   -0.7130 ca        1 MOL     -0.260072
    133 C47        11.5790   -1.4950    0.6370 ca        1 MOL      0.365560
    134 O20        12.7990   -1.2260    1.2040 oh        1 MOL     -0.552278
    135 H56         5.2720   -3.3530   -1.5240 hn        1 MOL      0.324113
    136 H57         6.5800   -2.3980    0.6700 h1        1 MOL      0.057149
    137 H58         7.8510   -2.3670   -2.1960 hc        1 MOL      0.063302
    138 H59         7.7700   -3.7260   -1.1710 hc        1 MOL      0.063302
    139 H60         8.6680   -3.2920    1.2800 ha        1 MOL      0.143472
    140 H61         9.7810   -1.1770   -2.2200 ha        1 MOL      0.143472
    141 H62        10.8160   -2.5900    2.3400 ha        1 MOL      0.151039
    142 H63        11.9270   -0.4280   -1.2770 ha        1 MOL      0.151039
    143 H64        13.2240   -0.5360    0.6840 ho        1 MOL      0.391850
    144 N13         6.1650    0.1810   -1.4520 n         1 MOL     -0.542169
    145 C48         5.9900    1.6300   -1.4300 c3        1 MOL      0.072675
    146 C49         5.3340    2.2110   -0.1810 c         1 MOL      0.233402
    147 O21         5.6200    3.2850    0.2900 o         1 MOL     -0.477507
    148 C50         5.2920    2.1030   -2.6710 c3        1 MOL      0.083796
    149 C51         5.3730    3.6550   -3.0620 c3        1 MOL     -0.228293
    150 C52         6.7380    3.8600   -3.7480 c         1 MOL      0.751115
    151 O22         7.6610    4.2140   -3.0360 o         1 MOL     -0.757363
    152 O23         6.7280    3.6460   -4.9830 o         1 MOL     -0.757363
    153 H65         5.7580   -0.3300   -2.2180 hn        1 MOL      0.288236
    154 H66         6.9870    2.0800   -1.4380 h1        1 MOL      0.119512
    155 H67         4.2480    1.8380   -2.5190 hc        1 MOL      0.000821
    156 H68         5.6030    1.5450   -3.5570 hc        1 MOL      0.000821
    157 H69         5.2690    4.2470   -2.1440 hc        1 MOL      0.023787
    158 H70         4.5510    3.8980   -3.7350 hc        1 MOL      0.023787
    159 N14         4.3080    1.5220    0.4200 n         1 MOL      0.019595
    160 C53         3.4900    1.8660    1.5760 c3        1 MOL     -0.064550
    161 C54         4.0460    1.3060    2.8860 c         1 MOL      0.406393
    162 O24         3.7800    1.8370    3.9820 o         1 MOL     -0.557691
    163 C55         2.0990    1.3180    1.2460 c3        1 MOL     -0.043060
    164 C56         1.4760    1.6190   -0.1320 c3        1 MOL     -0.055289
    165 C57         0.1680    0.8910   -0.3590 c         1 MOL      0.722912
    166 O25        -0.8350    1.5330   -0.6520 o         1 MOL     -0.688779
    167 O26         0.0400   -0.3420   -0.4180 o         1 MOL     -0.688779
    168 H71         4.1520    0.6020    0.0280 hn        1 MOL      0.184297
    169 H72         3.3580    2.9500    1.6360 h1        1 MOL      0.083242
    170 H73         1.3530    1.7300    1.9320 hc        1 MOL      0.064241
    171 H74         2.0450    0.2300    1.2510 hc        1 MOL      0.064241
    172 H75         2.1700    1.4360   -0.9450 hc        1 MOL     -0.010787
    173 H76         1.3500    2.7010   -0.1530 hc        1 MOL     -0.010787
    174 N15         4.8850    0.3040    2.7290 n         1 MOL      0.046934
    175 C58         5.5830   -0.2870    3.8290 c3        1 MOL     -0.331471
    176 H77         4.8760   -0.5140    4.6270 h1        1 MOL      0.101196
    177 H78         6.0660   -1.2070    3.5020 h1        1 MOL      0.101196
    178 H79         6.3360    0.4090    4.1990 h1        1 MOL      0.101196
    179 H80         5.1410    0.1170    1.7700 hn        1 MOL     -0.005344
    180 Ca1        -2.3700   -0.5380   -1.0940 Ca        1 MOL      1.708785
    181 O27        -1.1530   -0.3580   -3.5770 oh        1 MOL     -0.757292
    182 H81        -0.9770   -0.9930   -4.2780 ho        1 MOL      0.360644
    183 H82        -1.4590    0.4230   -4.0250 ho        1 MOL      0.360644
@<TRIPOS>BOND
     1    1    2 1   
     2    1    4 1   
     3    1    5 1   
     4    1    6 1   
     5    2    3 2   
     6    2    7 1   
     7    7    8 1   
     8    7   15 1   
     9    8    9 1   
    10    8   11 1   
    11    8   16 1   
    12    9   10 2   
    13    9   19 1   
    14   11   12 1   
    15   11   17 1   
    16   11   18 1   
    17   12   13 1   
    18   12   14 1   
    19   19   20 1   
    20   19   27 1   
    21   20   21 1   
    22   20   23 1   
    23   20   28 1   
    24   21   22 2   
    25   21   38 1   
    26   23   24 1   
    27   23   25 1   
    28   23   29 1   
    29   24   26 1   
    30   24   30 1   
    31   24   31 1   
    32   25   32 1   
    33   25   33 1   
    34   25   34 1   
    35   26   35 1   
    36   26   36 1   
    37   26   37 1   
    38   38   39 1   
    39   38   46 1   
    40   39   40 1   
    41   39   42 1   
    42   39   47 1   
    43   40   41 2   
    44   40   50 1   
    45   42   43 1   
    46   42   48 1   
    47   42   49 1   
    48   43   44 1   
    49   43   45 1   
    50   50   51 1   
    51   50   54 1   
    52   51   52 1   
    53   51   55 1   
    54   51   56 1   
    55   52   53 2   
    56   52   57 1   
    57   57   58 1   
    58   57   65 1   
    59   58   59 1   
    60   58   61 1   
    61   58   66 1   
    62   59   60 2   
    63   59   69 1   
    64   61   62 1   
    65   61   67 1   
    66   61   68 1   
    67   62   63 1   
    68   62   64 1   
    69   69   70 1   
    70   69   73 1   
    71   70   71 1   
    72   70   74 1   
    73   70   75 1   
    74   71   72 2   
    75   71   76 1   
    76   76   77 1   
    77   76   85 1   
    78   77   78 1   
    79   77   80 1   
    80   77   86 1   
    81   78   79 2   
    82   78   93 1   
    83   80   81 1   
    84   80   87 1   
    85   80   88 1   
    86   81   82 1   
    87   81   89 1   
    88   81   90 1   
    89   82   83 1   
    90   82   84 2   
    91   83   91 1   
    92   83   92 1   
    93   93   94 1   
    94   93  100 1   
    95   94   95 1   
    96   94   97 1   
    97   94  101 1   
    98   95   96 2   
    99   95  109 1   
   100   97   98 1   
   101   97   99 1   
   102   97  102 1   
   103   98  103 1   
   104   98  104 1   
   105   98  105 1   
   106   99  106 1   
   107   99  107 1   
   108   99  108 1   
   109  109  110 1   
   110  109  117 1   
   111  110  111 1   
   112  110  113 1   
   113  110  118 1   
   114  111  112 2   
   115  111  123 1   
   116  113  114 1   
   117  113  119 1   
   118  113  120 1   
   119  114  115 1   
   120  114  116 2   
   121  115  121 1   
   122  115  122 1   
   123  123  124 1   
   124  123  135 1   
   125  124  125 1   
   126  124  127 1   
   127  124  136 1   
   128  125  126 2   
   129  125  144 1   
   130  127  128 1   
   131  127  137 1   
   132  127  138 1   
   133  128  129 ar  
   134  128  130 ar  
   135  129  131 ar  
   136  129  139 1   
   137  130  132 ar  
   138  130  140 1   
   139  131  133 ar  
   140  131  141 1   
   141  132  133 ar  
   142  132  142 1   
   143  133  134 1   
   144  134  143 1   
   145  144  145 1   
   146  144  153 1   
   147  145  146 1   
   148  145  148 1   
   149  145  154 1   
   150  146  147 2   
   151  146  159 1   
   152  148  149 1   
   153  148  155 1   
   154  148  156 1   
   155  149  150 1   
   156  149  157 1   
   157  149  158 1   
   158  150  151 1   
   159  150  152 1   
   160  159  160 1   
   161  159  168 1   
   162  160  161 1   
   163  160  163 1   
   164  160  169 1   
   165  161  162 2   
   166  161  174 1   
   167  163  164 1   
   168  163  170 1   
   169  163  171 1   
   170  164  165 1   
   171  164  172 1   
   172  164  173 1   
   173  165  166 1   
   174  165  167 1   
   175  174  175 1   
   176  174  179 1   
   177  175  176 1   
   178  175  177 1   
   179  175  178 1   
   180  181  182 1   
   181  181  183 1   
@<TRIPOS>SUBSTRUCTURE
     1 MOL         1 TEMP              0 ****  ****    0 ROOT
