@<TRIPOS>MOLECULE
MOL
  189   185     1     0     0
SMALL
resp


@<TRIPOS>ATOM
      1 C1         -0.9350    0.1350    6.7440 c3        1 MOL     -0.339881
      2 C2         -1.0880    0.4070    5.2390 c         1 MOL      0.746753
      3 O1         -0.2580    0.9500    4.5070 o         1 MOL     -0.649522
      4 H1         -0.3340    0.9250    7.1960 hc        1 MOL      0.086124
      5 H2         -1.9180    0.1150    7.2130 hc        1 MOL      0.086124
      6 H3         -0.4410   -0.8250    6.8920 hc        1 MOL      0.086124
      7 N1         -2.1520   -0.0340    4.6940 n         1 MOL     -0.558296
      8 C3         -2.6280    0.3280    3.3970 c3        1 MOL      0.082995
      9 C4         -2.9910    1.8240    3.4240 c         1 MOL      0.554397
     10 O2         -3.9040    2.2610    4.0800 o         1 MOL     -0.536905
     11 C5         -3.8070   -0.5120    3.0690 c3        1 MOL     -0.348426
     12 C6         -4.2330   -0.2070    1.6000 c         1 MOL      0.803210
     13 O3         -3.4270    0.2790    0.7610 o         1 MOL     -0.650654
     14 O4         -5.4580   -0.3410    1.3180 o         1 MOL     -0.650654
     15 H4         -2.8120   -0.5360    5.2610 hn        1 MOL      0.313155
     16 H5         -1.8100    0.1770    2.6890 h1        1 MOL      0.028981
     17 H6         -4.6130   -0.2080    3.7420 hc        1 MOL      0.088485
     18 H7         -3.5390   -1.5610    3.2130 hc        1 MOL      0.088485
     19 N2         -2.2450    2.5410    2.5350 n         1 MOL     -0.261489
     20 C7         -2.4560    3.9970    2.4240 c3        1 MOL     -0.084064
     21 C8         -3.6060    4.4820    1.5920 c         1 MOL      0.468252
     22 O5         -4.1240    5.5820    1.8060 o         1 MOL     -0.520503
     23 C9         -1.1890    4.8370    2.0880 c3        1 MOL     -0.258530
     24 C10        -0.8160    4.7990    0.6300 c3        1 MOL      0.394146
     25 C11         0.6210    5.3860    0.3570 c3        1 MOL     -0.209823
     26 C12         0.7920    5.9750   -1.0660 c3        1 MOL     -0.165639
     27 N3          0.4440    4.9680   -2.0380 n4        1 MOL     -0.235221
     28 H8         -1.6380    1.9760    1.9580 hn        1 MOL      0.265221
     29 H9         -2.8240    4.3060    3.4010 h1        1 MOL      0.107820
     30 H10        -0.4030    4.3400    2.6640 hc        1 MOL      0.080045
     31 H11        -1.3120    5.8680    2.4110 hc        1 MOL      0.080045
     32 H12        -1.5750    5.3800    0.1030 hc        1 MOL     -0.025008
     33 H13        -0.7850    3.7680    0.2840 hc        1 MOL     -0.025008
     34 H14         1.3140    4.5680    0.5990 hc        1 MOL      0.052915
     35 H15         0.7790    6.1580    1.1080 hc        1 MOL      0.052915
     36 H16         1.8410    6.2430   -0.9950 hx        1 MOL      0.134056
     37 H17         0.1300    6.8380   -1.1990 hx        1 MOL      0.134056
     38 H18         0.4460    5.3370   -2.9730 hn        1 MOL      0.273017
     39 H19         1.1400    4.2420   -2.1500 hn        1 MOL      0.273017
     40 H20        -0.4390    4.5650   -1.7670 hn        1 MOL      0.273017
     41 N4         -4.0690    3.6000    0.6370 n         1 MOL     -0.200170
     42 C13        -4.9020    3.9220   -0.4610 c3        1 MOL     -0.101438
     43 C14        -6.3290    3.4350   -0.3310 c         1 MOL      0.439791
     44 O6         -7.2700    4.0290   -0.9700 o         1 MOL     -0.546188
     45 C15        -4.3850    3.4980   -1.8170 c3        1 MOL     -0.010082
     46 C16        -2.8280    3.6250   -1.9230 c         1 MOL      0.642047
     47 O7         -2.1840    2.7160   -1.3050 o         1 MOL     -0.672002
     48 O8         -2.4370    4.4990   -2.7400 o         1 MOL     -0.672002
     49 H21        -3.4730    2.7900    0.5780 hn        1 MOL      0.106704
     50 H22        -4.9350    5.0050   -0.4500 h1        1 MOL      0.066928
     51 H23        -4.7460    4.0040   -2.7200 hc        1 MOL      0.032580
     52 H24        -4.6360    2.4400   -1.8480 hc        1 MOL      0.032580
     53 N5         -6.5500    2.2710    0.2350 n         1 MOL     -0.199153
     54 C17        -7.7930    1.4100    0.1600 c3        1 MOL     -0.146165
     55 C18        -7.7760    0.6170   -1.1450 c         1 MOL      0.479850
     56 O9         -8.7330    0.5830   -1.9380 o         1 MOL     -0.551562
     57 H25        -5.7300    1.8720    0.6760 hn        1 MOL      0.156448
     58 H26        -8.7300    1.9610    0.1480 h1        1 MOL      0.104131
     59 H27        -7.8080    0.7650    1.0430 h1        1 MOL      0.104131
     60 N6         -6.6610   -0.0320   -1.4120 n         1 MOL     -0.110995
     61 C19        -6.5950   -1.0900   -2.4340 c3        1 MOL     -0.141374
     62 C20        -6.5560   -2.4940   -1.7970 c         1 MOL      0.419750
     63 O10        -6.7570   -3.4650   -2.4810 o         1 MOL     -0.499054
     64 C21        -5.4250   -0.9020   -3.4220 c3        1 MOL     -0.131987
     65 C22        -4.1170   -0.5290   -2.7680 c         1 MOL      0.495188
     66 O11        -3.5590   -1.3210   -1.9880 o         1 MOL     -0.654430
     67 O12        -3.5270    0.4950   -3.0570 o         1 MOL     -0.654430
     68 H28        -6.0600   -0.1040   -0.6150 hn        1 MOL      0.183207
     69 H29        -7.4710   -1.0770   -3.0860 h1        1 MOL      0.136356
     70 H30        -5.7340   -0.2410   -4.2350 hc        1 MOL      0.075116
     71 H31        -5.3230   -1.8600   -3.9280 hc        1 MOL      0.075116
     72 N7         -6.1480   -2.5300   -0.4970 n         1 MOL     -0.236402
     73 C23        -5.9840   -3.8610    0.1770 c3        1 MOL     -0.030132
     74 C24        -4.7740   -4.5430   -0.3280 c         1 MOL      0.435219
     75 O13        -4.7860   -5.7950   -0.3900 o         1 MOL     -0.549323
     76 H32        -5.9140   -1.6420   -0.0670 hn        1 MOL      0.128259
     77 H33        -6.8710   -4.4880    0.0740 h1        1 MOL      0.078290
     78 H34        -5.8670   -3.6930    1.2520 h1        1 MOL      0.078290
     79 N8         -3.7140   -3.8250   -0.7010 n         1 MOL     -0.067842
     80 C25        -2.3970   -4.4570   -1.0410 c3        1 MOL     -0.393418
     81 C26        -1.2060   -3.6110   -0.4770 c         1 MOL      0.786824
     82 O14        -1.3140   -2.4160   -0.5690 o         1 MOL     -0.689145
     83 C27        -2.2270   -4.6940   -2.6110 c3        1 MOL      0.437370
     84 C28        -3.3110   -5.6490   -3.1660 c3        1 MOL     -0.547952
     85 O15        -2.3240   -3.5620   -3.4190 oh        1 MOL     -0.646458
     86 H35        -3.7720   -2.8160   -0.6930 hn        1 MOL      0.131604
     87 H36        -2.4170   -5.4660   -0.6200 h1        1 MOL      0.126495
     88 H37        -1.2480   -5.1400   -2.7680 h1        1 MOL      0.020972
     89 H38        -3.0950   -3.0360   -3.1820 ho        1 MOL      0.437570
     90 H39        -4.2850   -5.1560   -3.2450 hc        1 MOL      0.149945
     91 H40        -3.0280   -5.9880   -4.1640 hc        1 MOL      0.149945
     92 H41        -3.5680   -6.5220   -2.5800 hc        1 MOL      0.149945
     93 N9         -0.1750   -4.2810    0.0860 n         1 MOL     -0.609139
     94 C29         1.0000   -3.6360    0.7490 c3        1 MOL      0.147860
     95 C30         2.2290   -3.6340   -0.1660 c         1 MOL      0.477014
     96 O16         2.7350   -4.7010   -0.4430 o         1 MOL     -0.527812
     97 C31         1.2480   -4.2530    2.1400 c3        1 MOL     -0.021102
     98 C32        -0.0880   -4.3290    3.0020 c3        1 MOL      0.060723
     99 C33         2.3730   -3.5260    2.9310 c3        1 MOL     -0.257633
    100 C34        -0.8350   -3.0460    3.3400 c3        1 MOL     -0.114965
    101 H42        -0.2510   -5.2840    0.0930 hn        1 MOL      0.326803
    102 H43         0.8070   -2.5760    0.9000 h1        1 MOL      0.037166
    103 H44         1.7180   -5.2200    1.9510 hc        1 MOL      0.029482
    104 H45         0.0940   -4.9760    3.8620 hc        1 MOL     -0.005484
    105 H46        -0.8180   -4.9190    2.4600 hc        1 MOL     -0.005484
    106 H47         2.5760   -4.1230    3.8150 hc        1 MOL      0.070686
    107 H48         3.2510   -3.3890    2.2910 hc        1 MOL      0.070686
    108 H49         2.0010   -2.5940    3.3610 hc        1 MOL      0.070686
    109 H50        -0.2820   -2.3620    3.9900 hc        1 MOL      0.045503
    110 H51        -1.1000   -2.5820    2.3860 hc        1 MOL      0.045503
    111 H52        -1.7310   -3.2830    3.9030 hc        1 MOL      0.045503
    112 N10         2.6250   -2.4570   -0.6870 n         1 MOL     -0.321301
    113 C35         3.8530   -2.2670   -1.5280 c3        1 MOL     -0.013097
    114 C36         5.1150   -2.1610   -0.7050 c         1 MOL      0.349380
    115 O17         5.0980   -2.0110    0.4960 o         1 MOL     -0.256401
    116 C37         3.6890   -0.9740   -2.3750 c3        1 MOL      0.279617
    117 C38         2.6670   -1.0030   -3.4520 c3        1 MOL     -0.312730
    118 O18         3.4170    0.1240   -1.5180 oh        1 MOL     -0.601674
    119 H53         2.0820   -1.6600   -0.4010 hn        1 MOL      0.303274
    120 H54         4.0310   -3.1470   -2.1410 h1        1 MOL      0.075691
    121 H55         4.5860   -0.8620   -2.9880 h1        1 MOL      0.005965
    122 H56         2.5720   -0.1180   -1.1240 ho        1 MOL      0.292322
    123 H57         2.9160   -1.7960   -4.1490 hc        1 MOL      0.075027
    124 H58         1.6590   -0.9840   -3.0510 hc        1 MOL      0.075027
    125 H59         2.7990   -0.0850   -4.0170 hc        1 MOL      0.075027
    126 N11         6.2780   -2.1950   -1.4050 n         1 MOL     -0.376685
    127 C39         7.5670   -1.8370   -0.7720 c3        1 MOL     -0.091260
    128 C40         7.5020   -0.5110   -0.0400 c         1 MOL      0.330220
    129 O19         8.2190   -0.4270    1.0180 o         1 MOL     -0.515218
    130 C41         8.6900   -1.9370   -1.7640 c3        1 MOL      0.301919
    131 C42         8.9580   -3.4360   -2.1140 c3        1 MOL     -0.522208
    132 O20         8.3880   -1.1760   -2.9520 oh        1 MOL     -0.650064
    133 H60         6.2250   -2.2130   -2.4090 hn        1 MOL      0.270183
    134 H61         7.8160   -2.5970   -0.0280 h1        1 MOL      0.148571
    135 H62         9.5960   -1.5610   -1.2830 h1        1 MOL      0.051107
    136 H63         8.8260   -1.5810   -3.7060 ho        1 MOL      0.415182
    137 H64         9.8470   -3.4320   -2.7480 hc        1 MOL      0.155897
    138 H65         9.2310   -3.9950   -1.2130 hc        1 MOL      0.155897
    139 H66         8.0650   -3.7630   -2.6490 hc        1 MOL      0.155897
    140 N12         6.6310    0.5150   -0.3420 n         1 MOL      0.007982
    141 C43         6.4890    1.8540    0.4400 c3        1 MOL     -0.323304
    142 C44         5.4970    1.7920    1.6420 c         1 MOL      0.629826
    143 O21         5.3890    2.7740    2.3630 o         1 MOL     -0.552227
    144 C45         6.2240    2.9790   -0.5510 c3        1 MOL      0.044854
    145 C46         7.4810    3.2290   -1.4780 c3        1 MOL      0.100695
    146 C47         7.1630    4.1810   -2.6650 c3        1 MOL     -0.416201
    147 C48         8.4250    4.2820   -3.6100 c3        1 MOL      0.222584
    148 N13         8.2580    5.1730   -4.7550 n4        1 MOL     -0.312336
    149 H67         6.0610    0.3430   -1.1590 hn        1 MOL      0.172767
    150 H68         7.4500    2.0600    0.9040 h1        1 MOL      0.161124
    151 H69         5.9600    3.9220   -0.0920 hc        1 MOL      0.029452
    152 H70         5.3700    2.8520   -1.2160 hc        1 MOL      0.029452
    153 H71         7.8440    2.2510   -1.8000 hc        1 MOL      0.009330
    154 H72         8.2410    3.7220   -0.8770 hc        1 MOL      0.009330
    155 H73         7.0210    5.1550   -2.2160 hc        1 MOL      0.129325
    156 H74         6.2520    3.7680   -3.0970 hc        1 MOL      0.129325
    157 H75         8.7740    3.3510   -4.0470 hx        1 MOL      0.053039
    158 H76         9.2480    4.6140   -2.9940 hx        1 MOL      0.053039
    159 H77         9.0090    5.8400   -4.8680 hn        1 MOL      0.305692
    160 H78         8.0930    4.6850   -5.6260 hn        1 MOL      0.305692
    161 H79         7.4760    5.8120   -4.6980 hn        1 MOL      0.305692
    162 N14         4.8710    0.6220    1.8840 n         1 MOL     -0.357711
    163 C49         3.9770    0.2640    3.0110 c3        1 MOL     -0.047480
    164 C50         4.4940   -0.9040    3.8320 c         1 MOL      0.483875
    165 O22         4.1980   -0.9820    4.9760 o         1 MOL     -0.529369
    166 C51         2.5830   -0.0110    2.4510 c3        1 MOL      0.086192
    167 C52         1.8980    1.1670    1.6940 c3        1 MOL     -0.336694
    168 C53         0.7770    0.6310    0.7830 c         1 MOL      0.819401
    169 O23         1.0140   -0.1650   -0.1870 o         1 MOL     -0.762461
    170 O24        -0.3750    1.1200    0.9280 o         1 MOL     -0.762461
    171 H80         5.0390   -0.1100    1.1980 hn        1 MOL      0.128770
    172 H81         3.8100    1.1180    3.6790 h1        1 MOL      0.125653
    173 H82         1.9630   -0.3890    3.2670 hc        1 MOL      0.053879
    174 H83         2.7480   -0.8160    1.7320 hc        1 MOL      0.053879
    175 H84         2.5940    1.7120    1.0510 hc        1 MOL      0.093609
    176 H85         1.4790    1.8550    2.4270 hc        1 MOL      0.093609
    177 N15         5.4040   -1.6990    3.2890 n         1 MOL     -0.186254
    178 C54         6.0610   -2.8600    3.9480 c3        1 MOL     -0.238598
    179 H86         7.0460   -2.5620    4.3080 h1        1 MOL      0.103870
    180 H87         5.4530   -3.1930    4.7890 h1        1 MOL      0.103870
    181 H88         6.1680   -3.6730    3.2310 h1        1 MOL      0.103870
    182 H89         5.6050   -1.5840    2.3080 hn        1 MOL      0.147587
    183 Ca1        -1.6310    0.2300   -1.2570 Ca        1 MOL      1.756194
    184 O25        -1.0600   -1.1950   -3.3900 oh        1 MOL     -0.804238
    185 H90        -0.7830   -1.1970   -4.2970 ho        1 MOL      0.398967
    186 H91        -1.5430   -2.0180   -3.2820 ho        1 MOL      0.398967
    187 O26         0.0350    1.5360   -2.8310 oh        1 MOL     -0.804238
    188 H92         0.9070    1.7110   -2.4800 ho        1 MOL      0.398967
    189 H93         0.1820    1.3370   -3.7440 ho        1 MOL      0.398967
@<TRIPOS>BOND
     1    1    2 1   
     2    1    4 1   
     3    1    5 1   
     4    1    6 1   
     5    2    3 2   
     6    2    7 1   
     7    7    8 1   
     8    7   15 1   
     9    8    9 1   
    10    8   11 1   
    11    8   16 1   
    12    9   10 2   
    13    9   19 1   
    14   11   12 1   
    15   11   17 1   
    16   11   18 1   
    17   12   13 1   
    18   12   14 1   
    19   19   20 1   
    20   19   28 1   
    21   20   21 1   
    22   20   23 1   
    23   20   29 1   
    24   21   22 2   
    25   21   41 1   
    26   23   24 1   
    27   23   30 1   
    28   23   31 1   
    29   24   25 1   
    30   24   32 1   
    31   24   33 1   
    32   25   26 1   
    33   25   34 1   
    34   25   35 1   
    35   26   27 1   
    36   26   36 1   
    37   26   37 1   
    38   27   38 1   
    39   27   39 1   
    40   27   40 1   
    41   41   42 1   
    42   41   49 1   
    43   42   43 1   
    44   42   45 1   
    45   42   50 1   
    46   43   44 2   
    47   43   53 1   
    48   45   46 1   
    49   45   51 1   
    50   45   52 1   
    51   46   47 1   
    52   46   48 1   
    53   53   54 1   
    54   53   57 1   
    55   54   55 1   
    56   54   58 1   
    57   54   59 1   
    58   55   56 2   
    59   55   60 1   
    60   60   61 1   
    61   60   68 1   
    62   61   62 1   
    63   61   64 1   
    64   61   69 1   
    65   62   63 2   
    66   62   72 1   
    67   64   65 1   
    68   64   70 1   
    69   64   71 1   
    70   65   66 1   
    71   65   67 1   
    72   72   73 1   
    73   72   76 1   
    74   73   74 1   
    75   73   77 1   
    76   73   78 1   
    77   74   75 2   
    78   74   79 1   
    79   79   80 1   
    80   79   86 1   
    81   80   81 1   
    82   80   83 1   
    83   80   87 1   
    84   81   82 2   
    85   81   93 1   
    86   83   84 1   
    87   83   85 1   
    88   83   88 1   
    89   84   90 1   
    90   84   91 1   
    91   84   92 1   
    92   85   89 1   
    93   93   94 1   
    94   93  101 1   
    95   94   95 1   
    96   94   97 1   
    97   94  102 1   
    98   95   96 2   
    99   95  112 1   
   100   97   98 1   
   101   97   99 1   
   102   97  103 1   
   103   98  100 1   
   104   98  104 1   
   105   98  105 1   
   106   99  106 1   
   107   99  107 1   
   108   99  108 1   
   109  100  109 1   
   110  100  110 1   
   111  100  111 1   
   112  112  113 1   
   113  112  119 1   
   114  113  114 1   
   115  113  116 1   
   116  113  120 1   
   117  114  115 2   
   118  114  126 1   
   119  116  117 1   
   120  116  118 1   
   121  116  121 1   
   122  117  123 1   
   123  117  124 1   
   124  117  125 1   
   125  118  122 1   
   126  126  127 1   
   127  126  133 1   
   128  127  128 1   
   129  127  130 1   
   130  127  134 1   
   131  128  129 2   
   132  128  140 1   
   133  130  131 1   
   134  130  132 1   
   135  130  135 1   
   136  131  137 1   
   137  131  138 1   
   138  131  139 1   
   139  132  136 1   
   140  140  141 1   
   141  140  149 1   
   142  141  142 1   
   143  141  144 1   
   144  141  150 1   
   145  142  143 2   
   146  142  162 1   
   147  144  145 1   
   148  144  151 1   
   149  144  152 1   
   150  145  146 1   
   151  145  153 1   
   152  145  154 1   
   153  146  147 1   
   154  146  155 1   
   155  146  156 1   
   156  147  148 1   
   157  147  157 1   
   158  147  158 1   
   159  148  159 1   
   160  148  160 1   
   161  148  161 1   
   162  162  163 1   
   163  162  171 1   
   164  163  164 1   
   165  163  166 1   
   166  163  172 1   
   167  164  165 2   
   168  164  177 1   
   169  166  167 1   
   170  166  173 1   
   171  166  174 1   
   172  167  168 1   
   173  167  175 1   
   174  167  176 1   
   175  168  169 1   
   176  168  170 1   
   177  177  178 1   
   178  177  182 1   
   179  178  179 1   
   180  178  180 1   
   181  178  181 1   
   182  184  185 1   
   183  184  186 1   
   184  187  188 1   
   185  187  189 1   
@<TRIPOS>SUBSTRUCTURE
     1 MOL         1 TEMP              0 ****  ****    0 ROOT
