@<TRIPOS>MOLECULE
MOL
  182   178     1     0     0
SMALL
resp


@<TRIPOS>ATOM
      1 C1          2.4480    1.4580    5.9220 c3        1 MOL     -0.362742
      2 C2          1.7670    1.5810    4.5380 c         1 MOL      0.726652
      3 O1          2.4960    1.7670    3.5660 o         1 MOL     -0.609429
      4 H1          1.6900    1.4990    6.7040 hc        1 MOL      0.098837
      5 H2          2.9810    0.5090    5.9830 hc        1 MOL      0.098837
      6 H3          3.1520    2.2800    6.0550 hc        1 MOL      0.098837
      7 N1          0.3990    1.5040    4.3560 n         1 MOL     -0.605274
      8 C3         -0.3140    1.5830    3.0800 c3        1 MOL      0.033973
      9 C4         -0.4040    3.0390    2.5240 c         1 MOL      0.563666
     10 O2         -1.1850    3.9430    2.9630 o         1 MOL     -0.547533
     11 C5         -1.7200    1.0040    3.3350 c3        1 MOL     -0.173567
     12 C6         -2.5700    0.9670    2.0430 c         1 MOL      0.725171
     13 O3         -3.7980    0.7990    2.2900 o         1 MOL     -0.741185
     14 O4         -2.1280    1.2000    0.9100 o         1 MOL     -0.741185
     15 H4         -0.1250    1.1590    5.1480 hn        1 MOL      0.318318
     16 H5          0.1670    0.9590    2.3230 h1        1 MOL      0.096214
     17 H6         -2.2020    1.7200    3.9860 hc        1 MOL      0.064998
     18 H7         -1.6380   -0.0290    3.6800 hc        1 MOL      0.064998
     19 N2          0.4640    3.2910    1.5540 n         1 MOL     -0.182858
     20 C7          0.9760    4.5920    1.1090 c3        1 MOL     -0.086787
     21 C8         -0.0580    5.4520    0.4660 c         1 MOL      0.546623
     22 O5         -0.0800    6.6250    0.7270 o         1 MOL     -0.552602
     23 C9          2.1530    4.3740    0.1730 c3        1 MOL     -0.111298
     24 C10         2.9580    5.5740   -0.2920 c3        1 MOL     -0.098810
     25 C11         4.2980    5.2690   -1.0340 c3        1 MOL      0.044429
     26 C12         4.9050    6.5990   -1.3730 c3        1 MOL      0.158477
     27 N3          6.1770    6.4790   -2.0150 n4        1 MOL     -0.514787
     28 H8          0.9000    2.4470    1.2080 hn        1 MOL      0.091885
     29 H9          1.2080    5.2010    1.9840 h1        1 MOL      0.100483
     30 H10         1.7260    3.8490   -0.6750 hc        1 MOL      0.152930
     31 H11         2.8770    3.7790    0.7260 hc        1 MOL      0.152930
     32 H12         3.1850    6.2480    0.5270 hc        1 MOL      0.038577
     33 H13         2.2830    6.0600   -0.9940 hc        1 MOL      0.038577
     34 H14         4.1600    4.6540   -1.9290 hc        1 MOL      0.006892
     35 H15         4.8660    4.6290   -0.3530 hc        1 MOL      0.006892
     36 H16         4.8680    7.2530   -0.4970 hx        1 MOL      0.047488
     37 H17         4.1680    7.0390   -2.0430 hx        1 MOL      0.047488
     38 H18         6.0960    5.9280   -2.8620 hn        1 MOL      0.371558
     39 H19         6.3930    7.3910   -2.4060 hn        1 MOL      0.371558
     40 H20         6.8930    6.2080   -1.3510 hn        1 MOL      0.371558
     41 N4         -0.9800    4.8400   -0.3570 n         1 MOL     -0.437733
     42 C13        -2.0790    5.5000   -1.0230 c3        1 MOL      0.074439
     43 C14        -3.4180    5.2970   -0.2650 c         1 MOL      0.424117
     44 O6         -4.3770    5.9190   -0.7120 o         1 MOL     -0.533568
     45 C15        -2.1260    5.0970   -2.5250 c3        1 MOL     -0.236966
     46 C16        -2.0400    3.5770   -2.8180 c         1 MOL      0.766284
     47 O7         -2.0050    3.2020   -4.0030 o         1 MOL     -0.729470
     48 O8         -1.9130    2.7520   -1.8820 o         1 MOL     -0.729470
     49 H21        -0.9190    3.8360   -0.4500 hn        1 MOL      0.244668
     50 H22        -1.9080    6.5790   -1.0830 h1        1 MOL      0.084167
     51 H23        -1.3780    5.6090   -3.1290 hc        1 MOL      0.074155
     52 H24        -3.0670    5.5170   -2.9110 hc        1 MOL      0.074155
     53 N5         -3.4990    4.4740    0.8100 n         1 MOL     -0.097044
     54 C17        -4.6900    4.1640    1.5670 c3        1 MOL     -0.311374
     55 C18        -5.6430    3.2120    0.8480 c         1 MOL      0.577052
     56 O9         -6.8310    3.0830    1.2340 o         1 MOL     -0.599711
     57 H25        -2.6320    4.1440    1.1900 hn        1 MOL      0.168447
     58 H26        -5.2660    5.0860    1.7120 h1        1 MOL      0.148111
     59 H27        -4.4540    3.7770    2.5530 h1        1 MOL      0.148111
     60 N6         -5.1790    2.5020   -0.1580 n         1 MOL     -0.157452
     61 C19        -5.9600    1.7030   -1.1050 c3        1 MOL     -0.130120
     62 C20        -6.4430    0.3160   -0.5850 c         1 MOL      0.390955
     63 O10        -7.0760   -0.4660   -1.3750 o         1 MOL     -0.481943
     64 C21        -5.2650    1.6290   -2.5210 c3        1 MOL     -0.279088
     65 C22        -4.3470    0.4480   -2.7020 c         1 MOL      0.693329
     66 N7         -4.3260   -0.2150   -3.7980 n         1 MOL     -0.687118
     67 O11        -3.7020   -0.0110   -1.8200 o         1 MOL     -0.627024
     68 H28        -4.1800    2.5920   -0.2930 hn        1 MOL      0.095166
     69 H29        -6.8870    2.2600   -1.2180 h1        1 MOL      0.153274
     70 H30        -4.8000    2.6010   -2.6740 hc        1 MOL      0.124320
     71 H31        -6.0450    1.5770   -3.2800 hc        1 MOL      0.124320
     72 H32        -4.6140    0.1290   -4.6900 hn        1 MOL      0.323776
     73 H33        -3.6250   -0.9330   -3.9170 hn        1 MOL      0.323776
     74 N8         -6.1180   -0.0280    0.7240 n         1 MOL     -0.276296
     75 C23        -6.6220   -1.2510    1.4070 c3        1 MOL     -0.135071
     76 C24        -5.6110   -2.3710    1.5650 c         1 MOL      0.616334
     77 O12        -5.8240   -3.2750    2.3900 o         1 MOL     -0.586310
     78 H34        -5.4540    0.5110    1.2510 hn        1 MOL      0.334767
     79 H35        -7.5840   -1.5500    0.9820 h1        1 MOL      0.099284
     80 H36        -6.8300   -1.0440    2.4530 h1        1 MOL      0.099284
     81 N9         -4.4500   -2.2820    0.8820 n         1 MOL     -0.342086
     82 C25        -3.3680   -3.3420    0.8340 c3        1 MOL     -0.083185
     83 C26        -1.9600   -2.8290    0.8680 c         1 MOL      0.776304
     84 O13        -1.6780   -1.6830    0.5080 o         1 MOL     -0.708536
     85 C27        -3.6100   -4.1420   -0.4640 c3        1 MOL     -0.004813
     86 C28        -5.0280   -4.5180   -0.6840 ca        1 MOL      0.008184
     87 C29        -5.8270   -3.8900   -1.6600 ca        1 MOL     -0.200317
     88 C30        -5.6220   -5.4230    0.1780 ca        1 MOL     -0.200317
     89 C31        -7.1940   -4.0640   -1.7220 ca        1 MOL     -0.300604
     90 C32        -7.0620   -5.6340    0.1220 ca        1 MOL     -0.300604
     91 C33        -7.7990   -5.0470   -0.8870 ca        1 MOL      0.436665
     92 O14        -9.0470   -5.4550   -1.0370 oh        1 MOL     -0.491350
     93 H37        -4.3740   -1.5440    0.1980 hn        1 MOL      0.297940
     94 H38        -3.4910   -4.0650    1.6470 h1        1 MOL      0.083585
     95 H39        -3.0390   -5.0580   -0.3240 hc        1 MOL      0.018524
     96 H40        -3.1430   -3.6850   -1.3310 hc        1 MOL      0.018524
     97 H41        -5.5230   -3.1940   -2.4250 ha        1 MOL      0.159857
     98 H42        -4.9310   -5.8490    0.8820 ha        1 MOL      0.159857
     99 H43        -7.7770   -3.5340   -2.4520 ha        1 MOL      0.165719
    100 H44        -7.4660   -6.2170    0.9330 ha        1 MOL      0.165719
    101 H45        -9.2290   -6.0970   -0.3540 ho        1 MOL      0.349827
    102 N10        -1.0650   -3.7340    1.1840 n         1 MOL     -0.623317
    103 C34         0.3800   -3.4160    1.2890 c3        1 MOL     -0.002348
    104 C35         1.1710   -4.2440    0.3140 c         1 MOL      0.459474
    105 O15         1.1180   -5.4650    0.2960 o         1 MOL     -0.568402
    106 C36         0.8490   -3.6470    2.7540 c3        1 MOL      0.118215
    107 C37         0.1310   -2.5600    3.6140 c3        1 MOL      0.061109
    108 C38         2.3030   -3.6220    2.9190 c3        1 MOL     -0.217359
    109 C39         0.2420   -2.9240    5.0690 c3        1 MOL     -0.193059
    110 H46        -1.3460   -4.6650    1.4480 hn        1 MOL      0.341293
    111 H47         0.5880   -2.3930    0.9650 h1        1 MOL      0.058232
    112 H48         0.5160   -4.6590    3.0090 hc        1 MOL      0.039087
    113 H49        -0.9210   -2.4940    3.3190 hc        1 MOL      0.020486
    114 H50         0.6420   -1.6090    3.4940 hc        1 MOL      0.020486
    115 H51         2.6900   -4.5100    2.4250 hc        1 MOL      0.048324
    116 H52         2.7290   -2.7250    2.4690 hc        1 MOL      0.048324
    117 H53         2.5740   -3.6930    3.9690 hc        1 MOL      0.048324
    118 H54         1.2470   -2.8480    5.4810 hc        1 MOL      0.039571
    119 H55        -0.3450   -2.2370    5.6780 hc        1 MOL      0.039571
    120 H56        -0.0930   -3.9600    5.1410 hc        1 MOL      0.039571
    121 N11         1.9750   -3.6160   -0.4850 n         1 MOL     -0.053199
    122 C40         3.0430   -4.1490   -1.3750 c3        1 MOL     -0.171607
    123 C41         4.4890   -3.7240   -1.0100 c         1 MOL      0.579165
    124 O16         4.6220   -2.7900   -0.2260 o         1 MOL     -0.561566
    125 C42         2.7980   -3.8300   -2.7750 c3        1 MOL      0.133546
    126 O17         2.5910   -2.4200   -2.9650 oh        1 MOL     -0.549726
    127 H57         1.8470   -2.6200   -0.5450 hn        1 MOL      0.209654
    128 H58         3.0910   -5.2370   -1.3340 h1        1 MOL      0.066869
    129 H59         1.8860   -4.3360   -3.0820 h1        1 MOL      0.028092
    130 H60         3.6980   -4.0740   -3.3360 h1        1 MOL      0.028092
    131 H61         2.0320   -2.1500   -2.2310 ho        1 MOL      0.309504
    132 N12         5.5000   -4.4710   -1.5240 n         1 MOL     -0.343268
    133 C43         6.9000   -4.4090   -1.0480 c3        1 MOL     -0.029642
    134 C44         7.6090   -3.0090   -1.0290 c         1 MOL      0.613709
    135 O18         8.2490   -2.6890   -0.0460 o         1 MOL     -0.542596
    136 C45         7.6250   -5.4860   -1.8580 c3        1 MOL     -0.369194
    137 H62         5.2120   -5.2420   -2.0930 hn        1 MOL      0.266239
    138 H63         6.8990   -4.7970   -0.0310 h1        1 MOL      0.111773
    139 H64         8.6410   -5.6180   -1.5110 hc        1 MOL      0.116879
    140 H65         7.0720   -6.4260   -1.9150 hc        1 MOL      0.116879
    141 H66         7.9240   -5.1380   -2.8530 hc        1 MOL      0.116879
    142 N13         7.3650   -2.1680   -2.0240 n         1 MOL     -0.429750
    143 C46         7.7880   -0.8130   -2.0920 c3        1 MOL      0.085844
    144 C47         7.2180    0.2110   -1.1420 c         1 MOL      0.319192
    145 O19         7.7980    1.1910   -0.7870 o         1 MOL     -0.507474
    146 C48         7.6180   -0.3330   -3.5180 c3        1 MOL     -0.329165
    147 H67         6.7900   -2.5120   -2.7900 hn        1 MOL      0.264305
    148 H68         8.8650   -0.7210   -1.9450 h1        1 MOL      0.109528
    149 H69         6.5500   -0.2940   -3.7000 hc        1 MOL      0.093950
    150 H70         8.0750    0.6350   -3.7350 hc        1 MOL      0.093950
    151 H71         8.1590   -0.8650   -4.3020 hc        1 MOL      0.093950
    152 N14         6.0680   -0.1260   -0.5740 n         1 MOL     -0.069217
    153 C49         5.4800    0.6190    0.5780 c3        1 MOL     -0.285300
    154 C50         6.2840    0.1700    1.8000 c         1 MOL      0.564054
    155 O20         6.7820    1.0400    2.5890 o         1 MOL     -0.576457
    156 C51         3.9540    0.4490    0.8070 c3        1 MOL      0.352244
    157 C52         3.1930    0.4780   -0.5420 c3        1 MOL      0.021725
    158 C53         1.7410    0.0130   -0.4800 c         1 MOL      0.778604
    159 O21         1.2430   -0.9940   -1.1360 o         1 MOL     -0.730201
    160 O22         0.9170    0.7450    0.1100 o         1 MOL     -0.730201
    161 H72         5.6170   -1.0150   -0.7350 hn        1 MOL      0.233597
    162 H73         5.6230    1.6910    0.4000 h1        1 MOL      0.120306
    163 H74         3.6280    1.3360    1.3490 hc        1 MOL     -0.084223
    164 H75         3.7690   -0.5090    1.2910 hc        1 MOL     -0.084223
    165 H76         3.6450   -0.1990   -1.2740 hc        1 MOL     -0.110161
    166 H77         3.2440    1.4760   -0.9790 hc        1 MOL     -0.110161
    167 N15         6.5050   -1.0940    2.0790 n         1 MOL     -0.155855
    168 C54         7.3480   -1.5270    3.1720 c3        1 MOL     -0.310910
    169 H78         6.7600   -1.5670    4.0890 h1        1 MOL      0.124782
    170 H79         7.7470   -2.5170    2.9540 h1        1 MOL      0.124782
    171 H80         8.1700   -0.8220    3.3000 h1        1 MOL      0.124782
    172 H81         6.0660   -1.7500    1.4460 hn        1 MOL      0.194556
    173 Ca1        -1.1660    0.2430   -1.2900 Ca        1 MOL      1.824785
    174 O23        -1.4080   -1.8970   -2.8140 oh        1 MOL     -0.846232
    175 H82        -1.0780   -2.7610   -2.5560 ho        1 MOL      0.404464
    176 H83        -1.7470   -2.0210   -3.6970 ho        1 MOL      0.404464
    177 O24        -1.3490    0.6330   -4.0150 oh        1 MOL     -0.846232
    178 H84        -1.5250    1.5690   -4.0910 ho        1 MOL      0.404464
    179 H85        -1.3620    0.3090   -4.9130 ho        1 MOL      0.404464
    180 O25         0.9460    1.8000   -2.9310 oh        1 MOL     -0.846232
    181 H86         1.4610    2.6070   -3.0020 ho        1 MOL      0.404464
    182 H87         1.2040    1.2910   -3.7070 ho        1 MOL      0.404464
@<TRIPOS>BOND
     1    1    2 1   
     2    1    4 1   
     3    1    5 1   
     4    1    6 1   
     5    2    3 2   
     6    2    7 1   
     7    7    8 1   
     8    7   15 1   
     9    8    9 1   
    10    8   11 1   
    11    8   16 1   
    12    9   10 2   
    13    9   19 1   
    14   11   12 1   
    15   11   17 1   
    16   11   18 1   
    17   12   13 1   
    18   12   14 1   
    19   19   20 1   
    20   19   28 1   
    21   20   21 1   
    22   20   23 1   
    23   20   29 1   
    24   21   22 2   
    25   21   41 1   
    26   23   24 1   
    27   23   30 1   
    28   23   31 1   
    29   24   25 1   
    30   24   32 1   
    31   24   33 1   
    32   25   26 1   
    33   25   34 1   
    34   25   35 1   
    35   26   27 1   
    36   26   36 1   
    37   26   37 1   
    38   27   38 1   
    39   27   39 1   
    40   27   40 1   
    41   41   42 1   
    42   41   49 1   
    43   42   43 1   
    44   42   45 1   
    45   42   50 1   
    46   43   44 2   
    47   43   53 1   
    48   45   46 1   
    49   45   51 1   
    50   45   52 1   
    51   46   47 1   
    52   46   48 1   
    53   53   54 1   
    54   53   57 1   
    55   54   55 1   
    56   54   58 1   
    57   54   59 1   
    58   55   56 2   
    59   55   60 1   
    60   60   61 1   
    61   60   68 1   
    62   61   62 1   
    63   61   64 1   
    64   61   69 1   
    65   62   63 2   
    66   62   74 1   
    67   64   65 1   
    68   64   70 1   
    69   64   71 1   
    70   65   66 1   
    71   65   67 2   
    72   66   72 1   
    73   66   73 1   
    74   74   75 1   
    75   74   78 1   
    76   75   76 1   
    77   75   79 1   
    78   75   80 1   
    79   76   77 2   
    80   76   81 1   
    81   81   82 1   
    82   81   93 1   
    83   82   83 1   
    84   82   85 1   
    85   82   94 1   
    86   83   84 2   
    87   83  102 1   
    88   85   86 1   
    89   85   95 1   
    90   85   96 1   
    91   86   87 ar  
    92   86   88 ar  
    93   87   89 ar  
    94   87   97 1   
    95   88   90 ar  
    96   88   98 1   
    97   89   91 ar  
    98   89   99 1   
    99   90   91 ar  
   100   90  100 1   
   101   91   92 1   
   102   92  101 1   
   103  102  103 1   
   104  102  110 1   
   105  103  104 1   
   106  103  106 1   
   107  103  111 1   
   108  104  105 2   
   109  104  121 1   
   110  106  107 1   
   111  106  108 1   
   112  106  112 1   
   113  107  109 1   
   114  107  113 1   
   115  107  114 1   
   116  108  115 1   
   117  108  116 1   
   118  108  117 1   
   119  109  118 1   
   120  109  119 1   
   121  109  120 1   
   122  121  122 1   
   123  121  127 1   
   124  122  123 1   
   125  122  125 1   
   126  122  128 1   
   127  123  124 2   
   128  123  132 1   
   129  125  126 1   
   130  125  129 1   
   131  125  130 1   
   132  126  131 1   
   133  132  133 1   
   134  132  137 1   
   135  133  134 1   
   136  133  136 1   
   137  133  138 1   
   138  134  135 2   
   139  134  142 1   
   140  136  139 1   
   141  136  140 1   
   142  136  141 1   
   143  142  143 1   
   144  142  147 1   
   145  143  144 1   
   146  143  146 1   
   147  143  148 1   
   148  144  145 2   
   149  144  152 1   
   150  146  149 1   
   151  146  150 1   
   152  146  151 1   
   153  152  153 1   
   154  152  161 1   
   155  153  154 1   
   156  153  156 1   
   157  153  162 1   
   158  154  155 2   
   159  154  167 1   
   160  156  157 1   
   161  156  163 1   
   162  156  164 1   
   163  157  158 1   
   164  157  165 1   
   165  157  166 1   
   166  158  159 1   
   167  158  160 1   
   168  167  168 1   
   169  167  172 1   
   170  168  169 1   
   171  168  170 1   
   172  168  171 1   
   173  174  175 1   
   174  174  176 1   
   175  177  178 1   
   176  177  179 1   
   177  180  181 1   
   178  180  182 1   
@<TRIPOS>SUBSTRUCTURE
     1 MOL         1 TEMP              0 ****  ****    0 ROOT
