@<TRIPOS>MOLECULE
MOL
  186   183     1     0     0
SMALL
resp


@<TRIPOS>ATOM
      1 C1         -0.8500   -2.9950   -5.8750 c3        1 MOL     -0.415015
      2 C2         -1.2520   -2.7590   -4.4110 c         1 MOL      0.760388
      3 O1         -0.4510   -3.0340   -3.5320 o         1 MOL     -0.560410
      4 H1         -1.7270   -3.2950   -6.4490 hc        1 MOL      0.094518
      5 H2         -0.4410   -2.0750   -6.2920 hc        1 MOL      0.094518
      6 H3         -0.0980   -3.7820   -5.9240 hc        1 MOL      0.094518
      7 N1         -2.4980   -2.3880   -4.1470 n         1 MOL     -0.565868
      8 C3         -2.9950   -2.2200   -2.7590 c3        1 MOL      0.048317
      9 C4         -3.2620   -3.5430   -2.0700 c         1 MOL      0.451157
     10 O2         -4.1370   -4.3260   -2.4010 o         1 MOL     -0.560371
     11 C5         -4.3390   -1.4390   -2.8900 c3        1 MOL     -0.169239
     12 C6         -4.8710   -0.8690   -1.5650 c         1 MOL      0.919348
     13 O3         -5.8960   -0.1530   -1.5290 o         1 MOL     -0.771931
     14 O4         -4.2910   -1.1520   -0.4850 o         1 MOL     -0.771931
     15 H4         -3.0250   -1.9660   -4.8970 hn        1 MOL      0.296450
     16 H5         -2.2170   -1.6400   -2.2710 h1        1 MOL      0.055020
     17 H6         -5.1390   -1.9830   -3.3710 hc        1 MOL      0.038294
     18 H7         -4.0650   -0.5500   -3.4730 hc        1 MOL      0.038294
     19 N2         -2.5380   -3.8270   -0.9890 n         1 MOL     -0.085211
     20 C7         -2.5210   -5.1630   -0.3370 c3        1 MOL     -0.022177
     21 C8         -3.5770   -5.3550    0.6960 c         1 MOL      0.534918
     22 O5         -4.1140   -6.4100    0.9410 o         1 MOL     -0.587705
     23 C9         -1.1350   -5.4150    0.2220 c3        1 MOL      0.234506
     24 C10        -0.1060   -5.6110   -0.9910 c3        1 MOL      0.192023
     25 C11        -1.0190   -6.7120    0.9910 c3        1 MOL     -0.449001
     26 C12        -0.4300   -6.7110   -1.9960 c3        1 MOL     -0.276503
     27 H8         -1.9220   -3.0670   -0.7370 hn        1 MOL      0.184137
     28 H9         -2.8360   -5.9040   -1.0710 h1        1 MOL      0.021339
     29 H10        -0.7610   -4.6030    0.8500 hc        1 MOL      0.004175
     30 H11         0.8130   -5.8480   -0.4650 hc        1 MOL     -0.039385
     31 H12         0.1290   -4.6530   -1.4590 hc        1 MOL     -0.039385
     32 H13        -1.4530   -7.5550    0.4460 hc        1 MOL      0.094785
     33 H14        -0.0110   -7.0420    1.2340 hc        1 MOL      0.094785
     34 H15        -1.7020   -6.6100    1.8320 hc        1 MOL      0.094785
     35 H16        -1.1060   -6.2650   -2.7180 hc        1 MOL      0.052493
     36 H17         0.4550   -6.9890   -2.5800 hc        1 MOL      0.052493
     37 H18        -0.7040   -7.6610   -1.5380 hc        1 MOL      0.052493
     38 N3         -3.9300   -4.2510    1.3560 n         1 MOL     -0.283447
     39 C13        -4.8850   -4.2040    2.4410 c3        1 MOL      0.072756
     40 C14        -6.1530   -3.3130    2.2310 c         1 MOL      0.554612
     41 O6         -7.1290   -3.5500    2.9180 o         1 MOL     -0.579296
     42 C15        -4.1520   -3.7940    3.7460 c3        1 MOL      0.013016
     43 C16        -3.5200   -2.4130    3.7260 c         1 MOL      0.694377
     44 O7         -3.5840   -1.6740    2.6720 o         1 MOL     -0.696567
     45 O8         -3.2430   -1.9510    4.8440 o         1 MOL     -0.696567
     46 H19        -3.6080   -3.3510    1.0330 hn        1 MOL      0.005725
     47 H20        -5.3030   -5.1850    2.6500 h1        1 MOL      0.029096
     48 H21        -3.2510   -4.4050    3.7910 hc        1 MOL     -0.028253
     49 H22        -4.8270   -3.9930    4.5720 hc        1 MOL     -0.028253
     50 N4         -6.1760   -2.4240    1.2350 n         1 MOL     -0.253627
     51 C17        -7.3780   -1.7340    0.7410 c3        1 MOL     -0.264721
     52 C18        -7.7370   -0.4570    1.4870 c         1 MOL      0.697270
     53 O9         -8.3140   -0.4610    2.5780 o         1 MOL     -0.581437
     54 H23        -5.2690   -2.0320    1.0070 hn        1 MOL      0.217756
     55 H24        -8.2200   -2.4020    0.9020 h1        1 MOL      0.091466
     56 H25        -7.4100   -1.5680   -0.3370 h1        1 MOL      0.091466
     57 N5         -7.3410    0.5640    0.8330 n         1 MOL     -0.628080
     58 C19        -7.4350    1.9390    1.2220 c3        1 MOL      0.170846
     59 C20        -7.3270    2.8960    0.0200 c         1 MOL      0.411314
     60 O10        -7.6270    4.0820    0.0610 o         1 MOL     -0.563879
     61 C21        -6.3680    2.3920    2.1630 c3        1 MOL     -0.144744
     62 C22        -4.9240    1.9820    1.8230 c         1 MOL      0.758922
     63 O11        -4.0780    1.6810    2.7550 o         1 MOL     -0.741705
     64 O12        -4.5430    1.9180    0.6560 o         1 MOL     -0.741705
     65 H26        -6.6590    0.3290    0.1240 hn        1 MOL      0.361650
     66 H27        -8.4150    2.0930    1.6650 h1        1 MOL      0.045885
     67 H28        -6.6370    1.9530    3.1310 hc        1 MOL      0.039643
     68 H29        -6.4510    3.4600    2.3360 hc        1 MOL      0.039643
     69 N6         -6.8080    2.4240   -1.1430 n         1 MOL     -0.255080
     70 C23        -6.6760    3.2550   -2.3140 c3        1 MOL      0.068786
     71 C24        -5.4160    4.0830   -2.2950 c         1 MOL      0.547578
     72 O13        -5.4080    5.1620   -2.8950 o         1 MOL     -0.627630
     73 H30        -6.3640    1.5240   -1.1870 hn        1 MOL      0.214549
     74 H31        -7.5710    3.8290   -2.5360 h1        1 MOL      0.007543
     75 H32        -6.5230    2.5400   -3.1280 h1        1 MOL      0.007543
     76 N7         -4.3930    3.6340   -1.5810 n         1 MOL     -0.402190
     77 C25        -3.0650    4.2580   -1.5050 c3        1 MOL      0.073759
     78 C26        -2.0700    3.0700   -1.4920 c         1 MOL      0.479019
     79 O14        -2.3120    1.9450   -0.9500 o         1 MOL     -0.628193
     80 C27        -2.9470    5.0450   -0.2140 c3        1 MOL      0.165775
     81 C28        -3.8070    6.3390   -0.2040 c3        1 MOL     -0.379794
     82 C29        -4.0010    7.0140    1.1640 c         1 MOL      0.707339
     83 N8         -4.9990    7.8160    1.3240 n         1 MOL     -0.696717
     84 O15        -3.2020    6.8780    2.1020 o         1 MOL     -0.600322
     85 H33        -4.4700    2.8040   -1.0110 hn        1 MOL      0.357610
     86 H34        -2.8160    4.9060   -2.3390 h1        1 MOL      0.034185
     87 H35        -1.8860    5.2900   -0.0780 hc        1 MOL      0.007316
     88 H36        -3.2550    4.4090    0.6190 hc        1 MOL      0.007316
     89 H37        -4.8220    6.2370   -0.6030 hc        1 MOL      0.092492
     90 H38        -3.2740    7.0450   -0.8420 hc        1 MOL      0.092492
     91 H39        -5.5490    7.9800    0.4950 hn        1 MOL      0.322598
     92 H40        -4.9150    8.4850    2.0820 hn        1 MOL      0.322598
     93 N9         -0.9040    3.2890   -2.1570 n         1 MOL     -0.476723
     94 C30         0.1420    2.2900   -2.2200 c3        1 MOL     -0.059348
     95 C31         1.4540    2.7090   -1.5550 c         1 MOL      0.529773
     96 O16         2.0890    3.6760   -1.9820 o         1 MOL     -0.556997
     97 C32         0.3010    1.7320   -3.6280 c3        1 MOL      0.179534
     98 C33         1.7480    1.2400   -3.9610 c3        1 MOL     -0.230368
     99 C34        -0.6720    0.5970   -3.8710 c3        1 MOL     -0.230368
    100 H41        -0.7510    4.2090   -2.5520 hn        1 MOL      0.295249
    101 H42        -0.1470    1.4260   -1.6180 h1        1 MOL      0.165369
    102 H43         0.0400    2.4420   -4.4200 hc        1 MOL      0.009073
    103 H44         2.1790    0.5610   -3.2210 hc        1 MOL      0.045622
    104 H45         1.6450    0.8410   -4.9730 hc        1 MOL      0.045622
    105 H46         2.4320    2.0960   -3.9880 hc        1 MOL      0.045622
    106 H47        -1.7130    0.8690   -3.6580 hc        1 MOL      0.045622
    107 H48        -0.5800    0.3390   -4.9230 hc        1 MOL      0.045622
    108 H49        -0.3910   -0.2780   -3.2860 hc        1 MOL      0.045622
    109 N10         1.8770    2.0270   -0.4830 n         1 MOL     -0.393443
    110 C35         3.1170    2.4050    0.2550 c3        1 MOL      0.080874
    111 C36         4.4210    2.1550   -0.5210 c         1 MOL      0.333286
    112 O17         4.3150    1.3600   -1.4900 o         1 MOL     -0.271204
    113 C37         3.0540    1.6820    1.6680 c3        1 MOL     -0.233540
    114 C38         3.9780    2.4200    2.5960 c         1 MOL      0.659887
    115 N11         3.4630    3.4370    3.2720 n         1 MOL     -0.763051
    116 O18         5.1660    2.0940    2.6080 o         1 MOL     -0.564279
    117 H50         1.3340    1.2350   -0.1800 hn        1 MOL      0.320011
    118 H51         3.0410    3.4670    0.4980 h1        1 MOL      0.030805
    119 H52         3.4530    0.6670    1.6030 hc        1 MOL      0.051198
    120 H53         2.0150    1.7370    1.9990 hc        1 MOL      0.051198
    121 H54         2.4630    3.5890    3.2540 hn        1 MOL      0.365024
    122 H55         4.0510    4.0900    3.7730 hn        1 MOL      0.365024
    123 N12         5.5890    2.6830   -0.1470 n         1 MOL     -0.446151
    124 C39         6.8500    2.1190   -0.6060 c3        1 MOL      0.061181
    125 C40         6.8540    0.6330   -0.3130 c         1 MOL      0.507512
    126 O19         7.2760   -0.1600   -1.1290 o         1 MOL     -0.508066
    127 C41         8.0280    2.7370    0.1420 c3        1 MOL      0.154434
    128 C42         9.3530    2.0510   -0.2460 ca        1 MOL     -0.064798
    129 C43         9.8230    1.9560   -1.5700 ca        1 MOL     -0.126435
    130 C44        10.0060    1.2820    0.7330 ca        1 MOL     -0.126435
    131 C45        10.9690    1.1150   -1.8160 ca        1 MOL     -0.274959
    132 C46        11.1450    0.5580    0.5080 ca        1 MOL     -0.274959
    133 C47        11.6260    0.4220   -0.7730 ca        1 MOL      0.386278
    134 O20        12.6460   -0.4350   -1.0480 oh        1 MOL     -0.550593
    135 H56         5.6110    3.3930    0.5680 hn        1 MOL      0.263379
    136 H57         6.9630    2.3480   -1.6570 h1        1 MOL      0.074151
    137 H58         7.8490    2.7800    1.2120 hc        1 MOL     -0.036710
    138 H59         8.2020    3.7610   -0.1720 hc        1 MOL     -0.036710
    139 H60         9.2660    2.4750   -2.3380 ha        1 MOL      0.119234
    140 H61         9.5430    1.3270    1.7010 ha        1 MOL      0.119234
    141 H62        11.3890    0.9660   -2.8050 ha        1 MOL      0.142781
    142 H63        11.5520    0.0150    1.3470 ha        1 MOL      0.142781
    143 H64        12.7470   -1.0320   -0.2970 ho        1 MOL      0.393215
    144 N13         6.4220    0.2710    0.9080 n         1 MOL     -0.318379
    145 C48         6.4890   -1.1490    1.2960 c3        1 MOL     -0.082233
    146 C49         5.4020   -2.0440    0.6620 c         1 MOL      0.292049
    147 O21         5.4730   -3.3260    0.8480 o         1 MOL     -0.515992
    148 C50         6.4790   -1.3210    2.8150 c3        1 MOL      0.047976
    149 C51         7.5070   -0.4060    3.5380 c3        1 MOL     -0.222980
    150 C52         7.6710   -0.7720    5.0240 c         1 MOL      0.679482
    151 O22         7.1400   -1.8180    5.5280 o         1 MOL     -0.738117
    152 O23         8.5690   -0.1010    5.5650 o         1 MOL     -0.738117
    153 H65         6.1420    0.9510    1.5940 hn        1 MOL      0.465347
    154 H66         7.4790   -1.5610    1.1040 h1        1 MOL      0.109882
    155 H67         6.8420   -2.3420    2.9510 hc        1 MOL      0.031515
    156 H68         5.4580   -1.1380    3.1260 hc        1 MOL      0.031515
    157 H69         7.3290    0.6730    3.4690 hc        1 MOL      0.034130
    158 H70         8.4870   -0.6510    3.1120 hc        1 MOL      0.034130
    159 N14         4.4610   -1.5080   -0.1600 n         1 MOL     -0.038861
    160 C53         3.5440   -2.2160   -1.0700 c3        1 MOL      0.096730
    161 C54         3.9420   -2.2720   -2.4880 c         1 MOL      0.348690
    162 O24         3.7880   -3.2600   -3.1800 o         1 MOL     -0.531716
    163 C55         2.0910   -1.7690   -0.9230 c3        1 MOL      0.072464
    164 C56         1.5040   -1.9270    0.5010 c3        1 MOL     -0.105794
    165 C57         0.1050   -1.2820    0.5820 c         1 MOL      0.732106
    166 O25        -1.0240   -1.7970    0.4680 o         1 MOL     -0.762243
    167 O26         0.1530   -0.0570    0.5020 o         1 MOL     -0.762243
    168 H71         4.5220   -0.5070   -0.1810 hn        1 MOL      0.029499
    169 H72         3.4280   -3.2540   -0.7640 h1        1 MOL      0.035302
    170 H73         1.5820   -2.3660   -1.6700 hc        1 MOL      0.014923
    171 H74         2.1780   -0.7250   -1.2390 hc        1 MOL      0.014923
    172 H75         2.1390   -1.3230    1.1580 hc        1 MOL      0.003769
    173 H76         1.5410   -2.9640    0.8480 hc        1 MOL      0.003769
    174 N15         4.5600   -1.1450   -2.8880 n         1 MOL      0.075059
    175 C58         5.2020   -0.9040   -4.1690 c3        1 MOL     -0.160910
    176 H77         5.8310   -0.0170   -4.0980 h1        1 MOL      0.060536
    177 H78         5.8180   -1.7640   -4.4340 h1        1 MOL      0.060536
    178 H79         4.4410   -0.7500   -4.9350 h1        1 MOL      0.060536
    179 H80         4.7350   -0.4390   -2.1930 hn        1 MOL     -0.112387
    180 Ca1        -2.4500    0.2290    1.1770 Ca        1 MOL      1.800456
    181 O27        -0.8850    2.4820    1.6120 oh        1 MOL     -0.861637
    182 H81        -0.1460    1.8730    1.6260 ho        1 MOL      0.414371
    183 H82        -0.5260    3.2950    1.9590 ho        1 MOL      0.414371
    184 O28        -1.3450    0.1940    3.5540 oh        1 MOL     -0.861637
    185 H83        -1.7560    0.6500    4.2970 ho        1 MOL      0.414371
    186 H84        -0.6350   -0.3170    3.9500 ho        1 MOL      0.414371
@<TRIPOS>BOND
     1    1    2 1   
     2    1    4 1   
     3    1    5 1   
     4    1    6 1   
     5    2    3 2   
     6    2    7 1   
     7    7    8 1   
     8    7   15 1   
     9    8    9 1   
    10    8   11 1   
    11    8   16 1   
    12    9   10 2   
    13    9   19 1   
    14   11   12 1   
    15   11   17 1   
    16   11   18 1   
    17   12   13 1   
    18   12   14 1   
    19   19   20 1   
    20   19   27 1   
    21   20   21 1   
    22   20   23 1   
    23   20   28 1   
    24   21   22 2   
    25   21   38 1   
    26   23   24 1   
    27   23   25 1   
    28   23   29 1   
    29   24   26 1   
    30   24   30 1   
    31   24   31 1   
    32   25   32 1   
    33   25   33 1   
    34   25   34 1   
    35   26   35 1   
    36   26   36 1   
    37   26   37 1   
    38   38   39 1   
    39   38   46 1   
    40   39   40 1   
    41   39   42 1   
    42   39   47 1   
    43   40   41 2   
    44   40   50 1   
    45   42   43 1   
    46   42   48 1   
    47   42   49 1   
    48   43   44 1   
    49   43   45 1   
    50   50   51 1   
    51   50   54 1   
    52   51   52 1   
    53   51   55 1   
    54   51   56 1   
    55   52   53 2   
    56   52   57 1   
    57   57   58 1   
    58   57   65 1   
    59   58   59 1   
    60   58   61 1   
    61   58   66 1   
    62   59   60 2   
    63   59   69 1   
    64   61   62 1   
    65   61   67 1   
    66   61   68 1   
    67   62   63 1   
    68   62   64 1   
    69   69   70 1   
    70   69   73 1   
    71   70   71 1   
    72   70   74 1   
    73   70   75 1   
    74   71   72 2   
    75   71   76 1   
    76   76   77 1   
    77   76   85 1   
    78   77   78 1   
    79   77   80 1   
    80   77   86 1   
    81   78   79 2   
    82   78   93 1   
    83   80   81 1   
    84   80   87 1   
    85   80   88 1   
    86   81   82 1   
    87   81   89 1   
    88   81   90 1   
    89   82   83 1   
    90   82   84 2   
    91   83   91 1   
    92   83   92 1   
    93   93   94 1   
    94   93  100 1   
    95   94   95 1   
    96   94   97 1   
    97   94  101 1   
    98   95   96 2   
    99   95  109 1   
   100   97   98 1   
   101   97   99 1   
   102   97  102 1   
   103   98  103 1   
   104   98  104 1   
   105   98  105 1   
   106   99  106 1   
   107   99  107 1   
   108   99  108 1   
   109  109  110 1   
   110  109  117 1   
   111  110  111 1   
   112  110  113 1   
   113  110  118 1   
   114  111  112 2   
   115  111  123 1   
   116  113  114 1   
   117  113  119 1   
   118  113  120 1   
   119  114  115 1   
   120  114  116 2   
   121  115  121 1   
   122  115  122 1   
   123  123  124 1   
   124  123  135 1   
   125  124  125 1   
   126  124  127 1   
   127  124  136 1   
   128  125  126 2   
   129  125  144 1   
   130  127  128 1   
   131  127  137 1   
   132  127  138 1   
   133  128  129 ar  
   134  128  130 ar  
   135  129  131 ar  
   136  129  139 1   
   137  130  132 ar  
   138  130  140 1   
   139  131  133 ar  
   140  131  141 1   
   141  132  133 ar  
   142  132  142 1   
   143  133  134 1   
   144  134  143 1   
   145  144  145 1   
   146  144  153 1   
   147  145  146 1   
   148  145  148 1   
   149  145  154 1   
   150  146  147 2   
   151  146  159 1   
   152  148  149 1   
   153  148  155 1   
   154  148  156 1   
   155  149  150 1   
   156  149  157 1   
   157  149  158 1   
   158  150  151 1   
   159  150  152 1   
   160  159  160 1   
   161  159  168 1   
   162  160  161 1   
   163  160  163 1   
   164  160  169 1   
   165  161  162 2   
   166  161  174 1   
   167  163  164 1   
   168  163  170 1   
   169  163  171 1   
   170  164  165 1   
   171  164  172 1   
   172  164  173 1   
   173  165  166 1   
   174  165  167 1   
   175  174  175 1   
   176  174  179 1   
   177  175  176 1   
   178  175  177 1   
   179  175  178 1   
   180  181  182 1   
   181  181  183 1   
   182  184  185 1   
   183  184  186 1   
@<TRIPOS>SUBSTRUCTURE
     1 MOL         1 TEMP              0 ****  ****    0 ROOT
