@<TRIPOS>MOLECULE
MOL
  175   173     1     0     0
SMALL
resp


@<TRIPOS>ATOM
      1 C1          0.2840    4.0970    5.1640 c3        1 MOL     -0.325078
      2 C2         -0.4230    4.1130    3.7860 c         1 MOL      0.752508
      3 O1          0.1780    4.5540    2.8360 o         1 MOL     -0.547626
      4 H1         -0.3040    4.6710    5.8810 hc        1 MOL      0.068799
      5 H2          0.3770    3.0690    5.5130 hc        1 MOL      0.068799
      6 H3          1.2750    4.5410    5.0700 hc        1 MOL      0.068799
      7 N1         -1.6270    3.5020    3.7860 n         1 MOL     -0.683453
      8 C3         -2.3960    3.2710    2.5820 c3        1 MOL      0.346943
      9 C4         -2.7580    4.5920    1.8750 c         1 MOL      0.401385
     10 O2         -3.2230    5.5620    2.5610 o         1 MOL     -0.583132
     11 C5         -3.6190    2.3020    2.8190 c3        1 MOL     -0.193176
     12 C6         -4.4140    2.2320    1.5620 c         1 MOL      0.536165
     13 O3         -5.4370    3.0070    1.4410 o         1 MOL     -0.628625
     14 O4         -4.0310    1.6030    0.5110 o         1 MOL     -0.628625
     15 H4         -1.9400    3.0540    4.6280 hn        1 MOL      0.322633
     16 H5         -1.7900    2.6460    1.9190 h1        1 MOL     -0.096117
     17 H6         -4.1740    2.6040    3.7020 hc        1 MOL      0.027670
     18 H7         -3.1860    1.3440    3.1320 hc        1 MOL      0.027670
     19 N2         -2.7220    4.5920    0.6060 n         1 MOL     -0.336487
     20 C7         -3.3000    5.5360   -0.3830 c3        1 MOL      0.469997
     21 C8         -4.3120    4.9360   -1.4550 c         1 MOL      0.353923
     22 O5         -4.6210    5.6920   -2.4020 o         1 MOL     -0.562046
     23 C9         -2.1310    6.3030   -0.9970 c3        1 MOL     -0.400522
     24 H8         -2.2240    3.7850    0.2530 hn        1 MOL      0.257700
     25 H9         -3.8870    6.2270    0.2260 h1        1 MOL     -0.007999
     26 H10        -1.4550    6.5150   -0.1670 hc        1 MOL      0.088318
     27 H11        -1.6050    5.7790   -1.8000 hc        1 MOL      0.088318
     28 H12        -2.5890    7.2480   -1.2660 hc        1 MOL      0.088318
     29 N3         -4.7230    3.6500   -1.3800 n         1 MOL     -0.342389
     30 C10        -5.4380    3.0180   -2.5400 c3        1 MOL      0.075757
     31 C11        -6.5820    2.0440   -2.0510 c         1 MOL      0.539903
     32 O6         -7.4150    1.7860   -2.8860 o         1 MOL     -0.592968
     33 C12        -4.4060    2.2960   -3.3980 c3        1 MOL     -0.178907
     34 C13        -3.6200    1.3060   -2.5620 c         1 MOL      0.686120
     35 O7         -4.1820    0.3870   -1.9320 o         1 MOL     -0.683914
     36 O8         -2.3720    1.3330   -2.5810 o         1 MOL     -0.683914
     37 H13        -4.4080    3.0850   -0.6070 hn        1 MOL      0.215631
     38 H14        -5.9580    3.8330   -3.0620 h1        1 MOL      0.082759
     39 H15        -3.7550    3.0400   -3.8360 hc        1 MOL      0.054197
     40 H16        -4.9210    1.8450   -4.2540 hc        1 MOL      0.054197
     41 N4         -6.6910    1.6990   -0.7820 n         1 MOL     -0.383499
     42 C14        -7.7190    0.8040   -0.2610 c3        1 MOL      0.005959
     43 C15        -7.4780   -0.6570   -0.5560 c         1 MOL      0.367495
     44 O9         -8.4310   -1.4510   -0.3480 o         1 MOL     -0.633025
     45 H17        -5.7910    1.6920   -0.2980 hn        1 MOL      0.227736
     46 H18        -8.7090    1.1530   -0.5670 h1        1 MOL      0.088765
     47 H19        -7.8570    0.8660    0.8240 h1        1 MOL      0.088765
     48 N5         -6.3510   -1.1250   -1.0220 n         1 MOL     -0.066239
     49 C16        -6.1230   -2.5130   -1.5900 c3        1 MOL      0.069377
     50 C17        -5.6850   -3.5420   -0.4930 c         1 MOL      0.302639
     51 O10        -5.3160   -4.6980   -0.9010 o         1 MOL     -0.490858
     52 C18        -5.1010   -2.4590   -2.7950 c3        1 MOL     -0.283809
     53 C19        -3.6530   -2.3550   -2.3090 c         1 MOL      0.879383
     54 N6         -2.7550   -2.1760   -3.2350 n         1 MOL     -0.673680
     55 O11        -3.2980   -2.3230   -1.1400 o         1 MOL     -0.785993
     56 H20        -5.6140   -0.4590   -1.1880 hn        1 MOL      0.117751
     57 H21        -7.0770   -2.8530   -2.0000 h1        1 MOL      0.116429
     58 H22        -5.3220   -1.5580   -3.3790 hc        1 MOL      0.076378
     59 H23        -5.2000   -3.4100   -3.3140 hc        1 MOL      0.076378
     60 H24        -2.9390   -2.2880   -4.2150 hn        1 MOL      0.329342
     61 H25        -1.8230   -1.9160   -2.9180 hn        1 MOL      0.329342
     62 N7         -5.8190   -3.2910    0.7970 n         1 MOL     -0.161566
     63 C20        -5.6430   -4.3160    1.8310 c3        1 MOL     -0.212529
     64 C21        -4.2090   -4.8800    1.8470 c         1 MOL      0.428361
     65 O12        -3.9430   -5.9050    2.4870 o         1 MOL     -0.584578
     66 H26        -6.0760   -2.3310    0.9920 hn        1 MOL      0.221975
     67 H27        -6.3780   -5.1170    1.7230 h1        1 MOL      0.120925
     68 H28        -5.7920   -3.8490    2.8080 h1        1 MOL      0.120925
     69 N8         -3.3150   -4.2680    1.1860 n         1 MOL      0.104998
     70 C22        -1.9430   -4.7480    1.0880 c3        1 MOL     -0.225475
     71 C23        -0.9600   -3.5420    1.2050 c         1 MOL      0.460691
     72 O13        -1.2510   -2.3990    0.9390 o         1 MOL     -0.388278
     73 C24        -1.6330   -5.5070   -0.1570 c3        1 MOL      0.591457
     74 C25        -2.3810   -6.7360   -0.3310 c3        1 MOL     -0.649765
     75 O14        -1.8000   -4.8240   -1.3650 oh        1 MOL     -0.622843
     76 H29        -3.6200   -3.3800    0.7910 hn        1 MOL     -0.024605
     77 H30        -1.6430   -5.3110    1.9750 h1        1 MOL      0.072805
     78 H31        -0.5680   -5.7400   -0.1160 h1        1 MOL     -0.021322
     79 H32        -2.4330   -4.1090   -1.3120 ho        1 MOL      0.322934
     80 H33        -3.4600   -6.5480   -0.3720 hc        1 MOL      0.156723
     81 H34        -2.0140   -7.1040   -1.2920 hc        1 MOL      0.156723
     82 H35        -2.1990   -7.3620    0.5400 hc        1 MOL      0.156723
     83 N9          0.1610   -3.8270    1.7680 n         1 MOL     -0.463325
     84 C26         1.3070   -2.8890    1.8030 c3        1 MOL     -0.242581
     85 C27         2.0940   -3.0670    0.5000 c         1 MOL      0.639178
     86 O15         2.8010   -4.0090    0.2770 o         1 MOL     -0.597398
     87 C28         2.2020   -2.8770    3.0660 c3        1 MOL      0.289779
     88 C29         1.3510   -2.9070    4.4060 c3        1 MOL      0.204107
     89 C30         3.1420   -1.6900    3.0550 c3        1 MOL     -0.200572
     90 C31         2.0820   -2.6290    5.7510 c3        1 MOL     -0.213177
     91 H36         0.4700   -4.7880    1.8510 hn        1 MOL      0.309734
     92 H37         0.9110   -1.8770    1.7370 h1        1 MOL      0.177288
     93 H38         2.8710   -3.7260    3.2420 hc        1 MOL     -0.054806
     94 H39         1.0500   -3.9480    4.3970 hc        1 MOL     -0.066487
     95 H40         0.5760   -2.1430    4.2760 hc        1 MOL     -0.066487
     96 H41         2.6010   -0.7400    3.1430 hc        1 MOL      0.019409
     97 H42         3.8830   -1.5970    3.8470 hc        1 MOL      0.019409
     98 H43         3.7930   -1.7160    2.1770 hc        1 MOL      0.019409
     99 H44         2.7020   -1.7270    5.7480 hc        1 MOL      0.040717
    100 H45         1.2660   -2.6300    6.4730 hc        1 MOL      0.040717
    101 H46         2.6730   -3.5060    6.0210 hc        1 MOL      0.040717
    102 N10         1.9220   -2.1010   -0.3870 n         1 MOL     -0.254106
    103 C32         2.7650   -1.8200   -1.5690 c3        1 MOL      0.038736
    104 C33         4.1390   -1.3360   -1.1130 c         1 MOL      0.434296
    105 O16         4.2700   -0.6570   -0.0380 o         1 MOL     -0.291681
    106 C34         2.0770   -0.7450   -2.4710 c3        1 MOL     -0.260662
    107 C35         0.5960   -1.0660   -2.8560 c         1 MOL      0.683489
    108 O17        -0.3690   -0.7140   -2.1490 o         1 MOL     -0.650918
    109 O18         0.4600   -1.6370   -3.9650 o         1 MOL     -0.650918
    110 H47         1.2640   -1.3890   -0.1070 hn        1 MOL      0.014947
    111 H48         3.0010   -2.6850   -2.1780 h1        1 MOL      0.084345
    112 H49         2.6310   -0.6920   -3.4090 hc        1 MOL      0.090795
    113 H50         2.0970    0.2110   -1.9400 hc        1 MOL      0.090795
    114 N11         5.2510   -1.5420   -1.8680 n         1 MOL     -0.715135
    115 C36         6.5630   -1.1670   -1.3740 c3        1 MOL      0.612969
    116 C37         6.7800    0.3970   -1.3120 c         1 MOL      0.236891
    117 O19         7.5190    0.8240   -0.4220 o         1 MOL     -0.495853
    118 C38         7.6790   -1.8170   -2.2020 c3        1 MOL     -0.399514
    119 C39         9.0750   -1.6610   -1.6070 ca        1 MOL      0.217121
    120 C40         9.4790   -2.4290   -0.4630 ca        1 MOL     -0.284315
    121 C41        10.0150   -0.7770   -2.1840 ca        1 MOL     -0.284315
    122 C42        10.7260   -2.2840    0.1880 ca        1 MOL      0.013136
    123 C43        11.2390   -0.5310   -1.4410 ca        1 MOL      0.013136
    124 C44        11.5660   -1.3060   -0.3230 ca        1 MOL     -0.231056
    125 H51         5.1590   -2.1670   -2.6630 hn        1 MOL      0.335925
    126 H52         6.6090   -1.4300   -0.3270 h1        1 MOL     -0.025964
    127 H53         7.6450   -1.3590   -3.1930 hc        1 MOL      0.104117
    128 H54         7.3950   -2.8660   -2.2660 hc        1 MOL      0.104117
    129 H55         8.8000   -3.2000   -0.1290 ha        1 MOL      0.145489
    130 H56         9.8320   -0.2400   -3.1040 ha        1 MOL      0.145489
    131 H57        10.9340   -2.9590    1.0070 ha        1 MOL      0.088063
    132 H58        11.9970    0.1210   -1.8370 ha        1 MOL      0.088063
    133 H59        12.4950   -1.1590    0.2100 ha        1 MOL      0.117914
    134 N12         6.0380    1.2500   -2.0520 n         1 MOL     -0.069041
    135 C45         6.1200    2.7860   -1.8300 c3        1 MOL      0.020264
    136 C46         5.4940    3.1570   -0.4540 c         1 MOL      0.273906
    137 O20         5.8220    4.1740    0.0700 o         1 MOL     -0.469729
    138 C47         5.4140    3.3920   -3.0670 c3        1 MOL      0.092007
    139 C48         5.4890    2.3310   -4.1360 c3        1 MOL     -0.126334
    140 C49         5.3810    1.0110   -3.3400 c3        1 MOL      0.058958
    141 H60         7.1470    3.1400   -1.9600 h1        1 MOL      0.064719
    142 H61         4.4010    3.5030   -2.6780 hc        1 MOL     -0.001249
    143 H62         5.8580    4.3490   -3.3590 hc        1 MOL     -0.001249
    144 H63         4.6130    2.3720   -4.7840 hc        1 MOL      0.043520
    145 H64         6.4080    2.3540   -4.7210 hc        1 MOL      0.043520
    146 H65         4.3490    0.6850   -3.1880 h1        1 MOL      0.009048
    147 H66         5.9590    0.2540   -3.8730 h1        1 MOL      0.009048
    148 N13         4.5040    2.3390    0.0490 n         1 MOL      0.010561
    149 C50         3.8590    2.5730    1.3330 c3        1 MOL     -0.180213
    150 C51         4.7690    2.0230    2.4400 c         1 MOL      0.394809
    151 O21         4.9460    2.6800    3.5160 o         1 MOL     -0.548817
    152 C52         2.4680    1.9800    1.3270 c3        1 MOL      0.012767
    153 C53         1.5920    2.4820    0.1570 c3        1 MOL     -0.129674
    154 C54         0.2260    1.8010    0.3170 c         1 MOL      0.811126
    155 O22         0.1710    0.6650    0.7570 o         1 MOL     -0.762688
    156 O23        -0.8310    2.3410   -0.1370 o         1 MOL     -0.762688
    157 H67         4.3840    1.4570   -0.4410 hn        1 MOL      0.075289
    158 H68         3.7500    3.6550    1.4800 h1        1 MOL      0.126313
    159 H69         1.9740    2.0890    2.2820 hc        1 MOL      0.035995
    160 H70         2.6120    0.9060    1.2150 hc        1 MOL      0.035995
    161 H71         2.0510    2.1890   -0.7780 hc        1 MOL      0.039990
    162 H72         1.3480    3.5500    0.2470 hc        1 MOL      0.039990
    163 N14         5.5260    0.9370    2.2040 n         1 MOL      0.029983
    164 C55         6.5710    0.5830    3.1450 c3        1 MOL     -0.217225
    165 H73         6.2570    0.8510    4.1540 h1        1 MOL      0.075999
    166 H74         6.7570   -0.4900    3.0950 h1        1 MOL      0.075999
    167 H75         7.4850    1.1220    2.8930 h1        1 MOL      0.075999
    168 H76         5.3530    0.3870    1.3810 hn        1 MOL      0.086248
    169 Ca1        -2.0950   -0.1540   -0.3920 Ca        1 MOL      1.714404
    170 O24        -3.5840   -1.2570    1.6500 oh        1 MOL     -0.770092
    171 H77        -4.4840   -1.0140    1.8600 ho        1 MOL      0.389291
    172 H78        -3.0790   -1.0380    2.4430 ho        1 MOL      0.389291
    173 O25        -1.3570   -0.1600    2.7600 oh        1 MOL     -0.770092
    174 H79        -1.3590    0.3310    3.5760 ho        1 MOL      0.389291
    175 H80        -0.6230    0.2030    2.2610 ho        1 MOL      0.389291
@<TRIPOS>BOND
     1    1    2 1   
     2    1    4 1   
     3    1    5 1   
     4    1    6 1   
     5    2    3 2   
     6    2    7 1   
     7    7    8 1   
     8    7   15 1   
     9    8    9 1   
    10    8   11 1   
    11    8   16 1   
    12    9   10 2   
    13    9   19 1   
    14   11   12 1   
    15   11   17 1   
    16   11   18 1   
    17   12   13 1   
    18   12   14 1   
    19   19   20 1   
    20   19   24 1   
    21   20   21 1   
    22   20   23 1   
    23   20   25 1   
    24   21   22 2   
    25   21   29 1   
    26   23   26 1   
    27   23   27 1   
    28   23   28 1   
    29   29   30 1   
    30   29   37 1   
    31   30   31 1   
    32   30   33 1   
    33   30   38 1   
    34   31   32 2   
    35   31   41 1   
    36   33   34 1   
    37   33   39 1   
    38   33   40 1   
    39   34   35 1   
    40   34   36 1   
    41   41   42 1   
    42   41   45 1   
    43   42   43 1   
    44   42   46 1   
    45   42   47 1   
    46   43   44 2   
    47   43   48 1   
    48   48   49 1   
    49   48   56 1   
    50   49   50 1   
    51   49   52 1   
    52   49   57 1   
    53   50   51 2   
    54   50   62 1   
    55   52   53 1   
    56   52   58 1   
    57   52   59 1   
    58   53   54 1   
    59   53   55 2   
    60   54   60 1   
    61   54   61 1   
    62   62   63 1   
    63   62   66 1   
    64   63   64 1   
    65   63   67 1   
    66   63   68 1   
    67   64   65 2   
    68   64   69 1   
    69   69   70 1   
    70   69   76 1   
    71   70   71 1   
    72   70   73 1   
    73   70   77 1   
    74   71   72 2   
    75   71   83 1   
    76   73   74 1   
    77   73   75 1   
    78   73   78 1   
    79   74   80 1   
    80   74   81 1   
    81   74   82 1   
    82   75   79 1   
    83   83   84 1   
    84   83   91 1   
    85   84   85 1   
    86   84   87 1   
    87   84   92 1   
    88   85   86 2   
    89   85  102 1   
    90   87   88 1   
    91   87   89 1   
    92   87   93 1   
    93   88   90 1   
    94   88   94 1   
    95   88   95 1   
    96   89   96 1   
    97   89   97 1   
    98   89   98 1   
    99   90   99 1   
   100   90  100 1   
   101   90  101 1   
   102  102  103 1   
   103  102  110 1   
   104  103  104 1   
   105  103  106 1   
   106  103  111 1   
   107  104  105 2   
   108  104  114 1   
   109  106  107 1   
   110  106  112 1   
   111  106  113 1   
   112  107  108 1   
   113  107  109 1   
   114  114  115 1   
   115  114  125 1   
   116  115  116 1   
   117  115  118 1   
   118  115  126 1   
   119  116  117 2   
   120  116  134 1   
   121  118  119 1   
   122  118  127 1   
   123  118  128 1   
   124  119  120 ar  
   125  119  121 ar  
   126  120  122 ar  
   127  120  129 1   
   128  121  123 ar  
   129  121  130 1   
   130  122  124 ar  
   131  122  131 1   
   132  123  124 ar  
   133  123  132 1   
   134  124  133 1   
   135  134  135 1   
   136  134  140 1   
   137  135  136 1   
   138  135  138 1   
   139  135  141 1   
   140  136  137 2   
   141  136  148 1   
   142  138  139 1   
   143  138  142 1   
   144  138  143 1   
   145  139  140 1   
   146  139  144 1   
   147  139  145 1   
   148  140  146 1   
   149  140  147 1   
   150  148  149 1   
   151  148  157 1   
   152  149  150 1   
   153  149  152 1   
   154  149  158 1   
   155  150  151 2   
   156  150  163 1   
   157  152  153 1   
   158  152  159 1   
   159  152  160 1   
   160  153  154 1   
   161  153  161 1   
   162  153  162 1   
   163  154  155 1   
   164  154  156 1   
   165  163  164 1   
   166  163  168 1   
   167  164  165 1   
   168  164  166 1   
   169  164  167 1   
   170  170  171 1   
   171  170  172 1   
   172  173  174 1   
   173  173  175 1   
@<TRIPOS>SUBSTRUCTURE
     1 MOL         1 TEMP              0 ****  ****    0 ROOT
