@<TRIPOS>MOLECULE
MOL
  186   183     1     0     0
SMALL
resp


@<TRIPOS>ATOM
      1 C1          1.1040   -2.2050    6.6500 c3        1 MOL     -0.287011
      2 C2          1.3990   -2.3630    5.1120 c         1 MOL      0.733718
      3 O1          0.5910   -3.0260    4.4800 o         1 MOL     -0.575870
      4 H1          1.2770   -1.1710    6.9490 hc        1 MOL      0.058769
      5 H2          0.0660   -2.4720    6.8510 hc        1 MOL      0.058769
      6 H3          1.7640   -2.8620    7.2170 hc        1 MOL      0.058769
      7 N1          2.4650   -1.7590    4.5800 n         1 MOL     -0.637589
      8 C3          2.6490   -1.7730    3.1330 c3        1 MOL      0.191498
      9 C4          2.8140   -3.1740    2.6390 c         1 MOL      0.472604
     10 O2          3.6210   -3.9360    3.1890 o         1 MOL     -0.567179
     11 C5          3.9110   -0.9470    2.9070 c3        1 MOL     -0.368893
     12 C6          4.3520   -0.7860    1.4520 c         1 MOL      0.941123
     13 O3          3.6240   -1.2200    0.5110 o         1 MOL     -0.784772
     14 O4          5.4310   -0.1560    1.2520 o         1 MOL     -0.784772
     15 H4          3.1180   -1.2460    5.1650 hn        1 MOL      0.324162
     16 H5          1.7220   -1.3410    2.7440 h1        1 MOL      0.068983
     17 H6          4.7590   -1.2690    3.5070 hc        1 MOL      0.090652
     18 H7          3.6350    0.0990    3.0820 hc        1 MOL      0.090652
     19 N2          2.1500   -3.5840    1.4960 n         1 MOL     -0.224544
     20 C7          2.1900   -5.0240    1.1020 c3        1 MOL     -0.019935
     21 C8          3.2790   -5.1570    0.0390 c         1 MOL      0.651480
     22 O5          4.1710   -6.0100    0.2450 o         1 MOL     -0.634035
     23 C9          0.7720   -5.4310    0.7110 c3        1 MOL      0.117115
     24 C10        -0.1760   -5.1250    1.9010 c3        1 MOL      0.235749
     25 C11         0.7390   -6.9720    0.6440 c3        1 MOL     -0.349372
     26 C12        -1.6880   -5.5000    1.8170 c3        1 MOL     -0.285498
     27 H8          1.5920   -2.9210    0.9860 hn        1 MOL      0.106027
     28 H9          2.5230   -5.6380    1.9260 h1        1 MOL      0.058218
     29 H10         0.4270   -5.0430   -0.2530 hc        1 MOL      0.044353
     30 H11        -0.1850   -4.0590    2.1360 hc        1 MOL     -0.019644
     31 H12         0.2130   -5.6310    2.7880 hc        1 MOL     -0.019644
     32 H13        -0.1580   -7.1960    0.0780 hc        1 MOL      0.059524
     33 H14         1.6680   -7.3440    0.2240 hc        1 MOL      0.059524
     34 H15         0.6490   -7.4300    1.6280 hc        1 MOL      0.059524
     35 H16        -2.2540   -5.0800    2.6440 hc        1 MOL      0.052198
     36 H17        -2.0210   -5.0960    0.8640 hc        1 MOL      0.052198
     37 H18        -1.7400   -6.5920    1.8520 hc        1 MOL      0.052198
     38 N3          3.2960   -4.2610   -0.9610 n         1 MOL     -0.405829
     39 C13         4.1420   -4.3450   -2.1300 c3        1 MOL     -0.134446
     40 C14         5.3760   -3.4460   -2.1370 c         1 MOL      0.411258
     41 O6          5.8340   -3.0090   -3.2180 o         1 MOL     -0.419914
     42 C15         3.3540   -4.2390   -3.4030 c3        1 MOL     -0.185593
     43 C16         2.4340   -3.0760   -3.4760 c         1 MOL      0.811362
     44 O7          2.6480   -2.0780   -2.7530 o         1 MOL     -0.715861
     45 O8          1.4620   -3.1950   -4.2420 o         1 MOL     -0.715861
     46 H19         2.6250   -3.4970   -0.9030 hn        1 MOL      0.321119
     47 H20         4.4550   -5.3910   -2.2110 h1        1 MOL      0.125079
     48 H21         2.7590   -5.1500   -3.4070 hc        1 MOL      0.035263
     49 H22         4.0130   -4.0700   -4.2480 hc        1 MOL      0.035263
     50 N4          5.8470   -3.1580   -0.9230 n         1 MOL     -0.267880
     51 C17         7.1560   -2.6310   -0.6430 c3        1 MOL     -0.002973
     52 C18         7.5060   -1.4620   -1.5870 c         1 MOL      0.414084
     53 O9          8.3290   -1.6280   -2.4920 o         1 MOL     -0.535388
     54 H23         5.1330   -3.2790   -0.2110 hn        1 MOL      0.261758
     55 H24         7.9430   -3.3890   -0.6260 h1        1 MOL      0.042724
     56 H25         7.0560   -2.1350    0.3240 h1        1 MOL      0.042724
     57 N5          6.8610   -0.2880   -1.3960 n         1 MOL     -0.263131
     58 C19         7.2070    0.9610   -2.1080 c3        1 MOL      0.047721
     59 C20         7.3560    2.1910   -1.2220 c         1 MOL      0.427758
     60 O10         7.6940    3.2750   -1.7350 o         1 MOL     -0.542979
     61 C21         6.1910    1.2570   -3.2660 c3        1 MOL     -0.181812
     62 C22         4.7490    1.3870   -2.8340 c         1 MOL      0.838451
     63 O11         4.4060    1.6290   -1.6690 o         1 MOL     -0.818783
     64 O12         3.8280    0.9390   -3.6070 o         1 MOL     -0.818783
     65 H26         6.1170   -0.1520   -0.7170 hn        1 MOL      0.127188
     66 H27         8.2140    0.8860   -2.5330 h1        1 MOL      0.067086
     67 H28         6.2820    0.4790   -4.0260 hc        1 MOL      0.058716
     68 H29         6.4110    2.2100   -3.7400 hc        1 MOL      0.058716
     69 N6          6.8750    2.1410    0.0690 n         1 MOL     -0.347269
     70 C23         7.1900    3.1220    1.1130 c3        1 MOL     -0.130507
     71 C24         5.9190    3.9580    1.4370 c         1 MOL      0.479917
     72 O13         5.9880    4.8260    2.3810 o         1 MOL     -0.603595
     73 H30         6.4630    1.2690    0.3780 hn        1 MOL      0.311596
     74 H31         8.0380    3.7450    0.8280 h1        1 MOL      0.109484
     75 H32         7.4930    2.6130    2.0290 h1        1 MOL      0.109484
     76 N7          4.7240    3.7000    0.8570 n         1 MOL     -0.288594
     77 C25         3.4390    4.1590    1.3200 c3        1 MOL      0.076136
     78 C26         2.3530    3.1160    1.4290 c         1 MOL      0.558669
     79 O14         2.4070    2.0390    0.7890 o         1 MOL     -0.626263
     80 C27         2.9800    5.3360    0.4010 c3        1 MOL     -0.037091
     81 C28         3.8260    6.5910    0.5560 c3        1 MOL     -0.195898
     82 C29         3.4210    7.7570   -0.3470 c         1 MOL      0.627791
     83 N8          3.5790    7.6930   -1.6550 n         1 MOL     -0.809095
     84 O15         2.8260    8.7130    0.0880 o         1 MOL     -0.581633
     85 H33         4.7380    2.9530    0.1760 hn        1 MOL      0.258510
     86 H34         3.5570    4.5530    2.3230 h1        1 MOL      0.049573
     87 H35         1.9700    5.6080    0.7260 hc        1 MOL      0.037543
     88 H36         3.0200    5.0140   -0.6330 hc        1 MOL      0.037543
     89 H37         4.8510    6.3200    0.3050 hc        1 MOL      0.072875
     90 H38         3.7880    6.8670    1.6100 hc        1 MOL      0.072875
     91 H39         4.0520    6.9060   -2.0630 hn        1 MOL      0.374014
     92 H40         3.1770    8.5050   -2.1190 hn        1 MOL      0.374014
     93 N9          1.3690    3.4600    2.2630 n         1 MOL     -0.442108
     94 C30         0.1130    2.6910    2.2940 c3        1 MOL      0.078431
     95 C31        -0.9500    3.2030    1.2840 c         1 MOL      0.338095
     96 O16        -1.4530    4.2840    1.5440 o         1 MOL     -0.545247
     97 C32        -0.5260    2.7180    3.7050 c3        1 MOL      0.300444
     98 C33        -1.8120    1.8860    3.7480 c3        1 MOL     -0.231267
     99 C34         0.5010    2.1500    4.6920 c3        1 MOL     -0.231267
    100 H41         1.5960    4.2430    2.8680 hn        1 MOL      0.273549
    101 H42         0.3510    1.6480    2.0820 h1        1 MOL      0.123435
    102 H43        -0.7030    3.7450    4.0240 hc        1 MOL     -0.034112
    103 H44        -2.5850    2.3020    3.1020 hc        1 MOL      0.032927
    104 H45        -1.5450    0.8520    3.5260 hc        1 MOL      0.032927
    105 H46        -2.2550    1.8510    4.7450 hc        1 MOL      0.032927
    106 H47         0.1490    2.2950    5.7130 hc        1 MOL      0.032927
    107 H48         0.7740    1.1160    4.4460 hc        1 MOL      0.032927
    108 H49         1.4530    2.6630    4.5920 hc        1 MOL      0.032927
    109 N10        -1.1880    2.4950    0.1790 n         1 MOL     -0.231662
    110 C35        -2.3990    2.5600   -0.6330 c3        1 MOL      0.017993
    111 C36        -3.6970    2.0210   -0.0510 c         1 MOL      0.468084
    112 O17        -3.6210    1.1080    0.7480 o         1 MOL     -0.378305
    113 C37        -2.0040    1.9030   -1.9550 c3        1 MOL      0.000418
    114 C38        -3.0790    2.1400   -3.0400 c         1 MOL      0.632500
    115 N11        -3.3910    3.3410   -3.3530 n         1 MOL     -0.759406
    116 O18        -3.7290    1.2230   -3.4990 o         1 MOL     -0.545192
    117 H50        -0.6300    1.6500    0.1250 hn        1 MOL      0.245398
    118 H51        -2.5670    3.6100   -0.8620 h1        1 MOL      0.015755
    119 H52        -1.6410    0.8840   -1.7800 hc        1 MOL      0.008165
    120 H53        -1.0830    2.4080   -2.2680 hc        1 MOL      0.008165
    121 H54        -2.8560    4.0990   -2.9440 hn        1 MOL      0.351294
    122 H55        -4.1570    3.3270   -4.0070 hn        1 MOL      0.351294
    123 N12        -4.8190    2.5520   -0.5120 n         1 MOL     -0.444782
    124 C39        -6.1580    2.1560    0.0030 c3        1 MOL      0.156374
    125 C40        -6.3550    0.6360    0.0830 c         1 MOL      0.438892
    126 O19        -6.8220    0.1930    1.1240 o         1 MOL     -0.502293
    127 C41        -7.3540    2.7150   -0.8570 c3        1 MOL     -0.168189
    128 C42        -8.7100    2.1830   -0.5220 ca        1 MOL     -0.109867
    129 C43        -9.3060    2.5010    0.7480 ca        1 MOL     -0.017250
    130 C44        -9.4150    1.3540   -1.4450 ca        1 MOL     -0.017250
    131 C45       -10.6410    2.0920    1.0110 ca        1 MOL     -0.410311
    132 C46       -10.7610    1.0670   -1.2010 ca        1 MOL     -0.410311
    133 C47       -11.3020    1.3340    0.0470 ca        1 MOL      0.506009
    134 O20       -12.5600    0.8810    0.3490 oh        1 MOL     -0.571712
    135 H56        -4.7890    3.4610   -0.9620 hn        1 MOL      0.252312
    136 H57        -6.3580    2.5560    0.9890 h1        1 MOL      0.031819
    137 H58        -7.2020    2.4710   -1.9040 hc        1 MOL      0.071217
    138 H59        -7.4070    3.7980   -0.8000 hc        1 MOL      0.071217
    139 H60        -8.7910    3.0520    1.5110 ha        1 MOL      0.120681
    140 H61        -8.9540    0.9720   -2.3470 ha        1 MOL      0.120681
    141 H62       -11.0840    2.1830    1.9960 ha        1 MOL      0.176432
    142 H63       -11.3260    0.5760   -1.9700 ha        1 MOL      0.176432
    143 H64       -13.0040    0.4370   -0.3770 ho        1 MOL      0.382299
    144 N13        -6.0130   -0.1210   -0.9610 n         1 MOL      0.047918
    145 C48        -6.4290   -1.5260   -0.8670 c3        1 MOL     -0.077661
    146 C49        -5.6250   -2.2680    0.2000 c         1 MOL      0.236703
    147 O21        -6.0170   -3.2740    0.7990 o         1 MOL     -0.504266
    148 C50        -6.1850   -2.1920   -2.2880 c3        1 MOL      0.203041
    149 C51        -6.7580   -1.3210   -3.3920 c3        1 MOL     -0.345099
    150 C52        -6.5900   -2.0480   -4.7150 c         1 MOL      0.691728
    151 O22        -7.5270   -2.6870   -5.2760 o         1 MOL     -0.720682
    152 O23        -5.4620   -2.1440   -5.2550 o         1 MOL     -0.720682
    153 H65        -5.6450    0.3530   -1.7730 hn        1 MOL      0.062749
    154 H66        -7.4640   -1.6690   -0.5610 h1        1 MOL      0.067379
    155 H67        -6.6600   -3.1720   -2.2410 hc        1 MOL      0.007962
    156 H68        -5.1010   -2.3110   -2.3520 hc        1 MOL      0.007962
    157 H69        -6.3430   -0.3190   -3.3810 hc        1 MOL      0.033836
    158 H70        -7.8170   -1.1750   -3.1450 hc        1 MOL      0.033836
    159 N14        -4.4150   -1.7840    0.3960 n         1 MOL     -0.138453
    160 C53        -3.5480   -2.1450    1.4780 c3        1 MOL     -0.053086
    161 C54        -4.0250   -1.6890    2.8740 c         1 MOL      0.463118
    162 O24        -3.7220   -2.3600    3.8190 o         1 MOL     -0.558829
    163 C55        -2.1380   -1.6490    1.3280 c3        1 MOL      0.115812
    164 C56        -1.5260   -1.7320   -0.1080 c3        1 MOL     -0.096828
    165 C57        -0.0360   -1.2070   -0.0530 c         1 MOL      0.799841
    166 O25         0.8900   -1.9570   -0.4360 o         1 MOL     -0.801477
    167 O26         0.1640   -0.0170    0.1390 o         1 MOL     -0.801477
    168 H71        -4.2020   -0.9630   -0.1520 hn        1 MOL      0.141600
    169 H72        -3.4060   -3.2260    1.5140 h1        1 MOL      0.079067
    170 H73        -1.4550   -2.1700    1.9950 hc        1 MOL     -0.008323
    171 H74        -2.1610   -0.6090    1.6540 hc        1 MOL     -0.008323
    172 H75        -2.1540   -1.1280   -0.7680 hc        1 MOL      0.019049
    173 H76        -1.5760   -2.7690   -0.4440 hc        1 MOL      0.019049
    174 N15        -4.8010   -0.6030    2.9300 n         1 MOL     -0.015572
    175 C58        -5.5120   -0.1730    4.1720 c3        1 MOL     -0.173147
    176 H77        -4.9780    0.6620    4.6250 h1        1 MOL      0.063100
    177 H78        -6.5260    0.1380    3.9220 h1        1 MOL      0.063100
    178 H79        -5.5490   -1.0040    4.8760 h1        1 MOL      0.063100
    179 H80        -5.0280   -0.0160    2.1300 hn        1 MOL      0.064213
    180 Ca1         2.3540    0.1320   -1.2720 Ca        1 MOL      1.809188
    181 O27         0.4690   -0.3760   -3.1520 oh        1 MOL     -0.819266
    182 H81        -0.1640   -0.3030   -3.8720 ho        1 MOL      0.394625
    183 H82         1.0790   -1.0480   -3.4390 ho        1 MOL      0.394625
    184 O28         1.4900    2.4650   -2.3980 oh        1 MOL     -0.819266
    185 H83         1.5230    2.1520   -3.3120 ho        1 MOL      0.394625
    186 H84         2.1770    3.1340   -2.3590 ho        1 MOL      0.394625
@<TRIPOS>BOND
     1    1    2 1   
     2    1    4 1   
     3    1    5 1   
     4    1    6 1   
     5    2    3 2   
     6    2    7 1   
     7    7    8 1   
     8    7   15 1   
     9    8    9 1   
    10    8   11 1   
    11    8   16 1   
    12    9   10 2   
    13    9   19 1   
    14   11   12 1   
    15   11   17 1   
    16   11   18 1   
    17   12   13 1   
    18   12   14 1   
    19   19   20 1   
    20   19   27 1   
    21   20   21 1   
    22   20   23 1   
    23   20   28 1   
    24   21   22 2   
    25   21   38 1   
    26   23   24 1   
    27   23   25 1   
    28   23   29 1   
    29   24   26 1   
    30   24   30 1   
    31   24   31 1   
    32   25   32 1   
    33   25   33 1   
    34   25   34 1   
    35   26   35 1   
    36   26   36 1   
    37   26   37 1   
    38   38   39 1   
    39   38   46 1   
    40   39   40 1   
    41   39   42 1   
    42   39   47 1   
    43   40   41 2   
    44   40   50 1   
    45   42   43 1   
    46   42   48 1   
    47   42   49 1   
    48   43   44 1   
    49   43   45 1   
    50   50   51 1   
    51   50   54 1   
    52   51   52 1   
    53   51   55 1   
    54   51   56 1   
    55   52   53 2   
    56   52   57 1   
    57   57   58 1   
    58   57   65 1   
    59   58   59 1   
    60   58   61 1   
    61   58   66 1   
    62   59   60 2   
    63   59   69 1   
    64   61   62 1   
    65   61   67 1   
    66   61   68 1   
    67   62   63 1   
    68   62   64 1   
    69   69   70 1   
    70   69   73 1   
    71   70   71 1   
    72   70   74 1   
    73   70   75 1   
    74   71   72 2   
    75   71   76 1   
    76   76   77 1   
    77   76   85 1   
    78   77   78 1   
    79   77   80 1   
    80   77   86 1   
    81   78   79 2   
    82   78   93 1   
    83   80   81 1   
    84   80   87 1   
    85   80   88 1   
    86   81   82 1   
    87   81   89 1   
    88   81   90 1   
    89   82   83 1   
    90   82   84 2   
    91   83   91 1   
    92   83   92 1   
    93   93   94 1   
    94   93  100 1   
    95   94   95 1   
    96   94   97 1   
    97   94  101 1   
    98   95   96 2   
    99   95  109 1   
   100   97   98 1   
   101   97   99 1   
   102   97  102 1   
   103   98  103 1   
   104   98  104 1   
   105   98  105 1   
   106   99  106 1   
   107   99  107 1   
   108   99  108 1   
   109  109  110 1   
   110  109  117 1   
   111  110  111 1   
   112  110  113 1   
   113  110  118 1   
   114  111  112 2   
   115  111  123 1   
   116  113  114 1   
   117  113  119 1   
   118  113  120 1   
   119  114  115 1   
   120  114  116 2   
   121  115  121 1   
   122  115  122 1   
   123  123  124 1   
   124  123  135 1   
   125  124  125 1   
   126  124  127 1   
   127  124  136 1   
   128  125  126 2   
   129  125  144 1   
   130  127  128 1   
   131  127  137 1   
   132  127  138 1   
   133  128  129 ar  
   134  128  130 ar  
   135  129  131 ar  
   136  129  139 1   
   137  130  132 ar  
   138  130  140 1   
   139  131  133 ar  
   140  131  141 1   
   141  132  133 ar  
   142  132  142 1   
   143  133  134 1   
   144  134  143 1   
   145  144  145 1   
   146  144  153 1   
   147  145  146 1   
   148  145  148 1   
   149  145  154 1   
   150  146  147 2   
   151  146  159 1   
   152  148  149 1   
   153  148  155 1   
   154  148  156 1   
   155  149  150 1   
   156  149  157 1   
   157  149  158 1   
   158  150  151 1   
   159  150  152 1   
   160  159  160 1   
   161  159  168 1   
   162  160  161 1   
   163  160  163 1   
   164  160  169 1   
   165  161  162 2   
   166  161  174 1   
   167  163  164 1   
   168  163  170 1   
   169  163  171 1   
   170  164  165 1   
   171  164  172 1   
   172  164  173 1   
   173  165  166 1   
   174  165  167 1   
   175  174  175 1   
   176  174  179 1   
   177  175  176 1   
   178  175  177 1   
   179  175  178 1   
   180  181  182 1   
   181  181  183 1   
   182  184  185 1   
   183  184  186 1   
@<TRIPOS>SUBSTRUCTURE
     1 MOL         1 TEMP              0 ****  ****    0 ROOT
