@<TRIPOS>MOLECULE
MOL
  182   178     1     0     0
SMALL
resp


@<TRIPOS>ATOM
      1 C1          2.3310    0.8110    6.1310 c3        1 MOL     -0.325327
      2 C2          1.7430    0.8280    4.6900 c         1 MOL      0.860136
      3 O1          2.5510    0.8340    3.7490 o         1 MOL     -0.636476
      4 H1          3.4190    0.7760    6.0790 hc        1 MOL      0.084114
      5 H2          2.0230    1.7130    6.6600 hc        1 MOL      0.084114
      6 H3          1.9650   -0.0670    6.6630 hc        1 MOL      0.084114
      7 N1          0.4500    0.9980    4.4610 n         1 MOL     -0.762944
      8 C3         -0.2010    1.2150    3.1640 c3        1 MOL      0.256672
      9 C4         -0.1210    2.7110    2.7270 c         1 MOL      0.538335
     10 O2         -0.5730    3.5260    3.5620 o         1 MOL     -0.537488
     11 C5         -1.5720    0.6130    3.0860 c3        1 MOL     -0.074007
     12 C6         -2.3630    1.1440    1.8420 c         1 MOL      0.572033
     13 O3         -3.4790    1.7070    2.0460 o         1 MOL     -0.656316
     14 O4         -1.8140    1.0920    0.7210 o         1 MOL     -0.656316
     15 H4         -0.1610    1.0310    5.2710 hn        1 MOL      0.345380
     16 H5          0.4470    0.7710    2.4070 h1        1 MOL      0.065651
     17 H6         -2.1140    0.8050    4.0180 hc        1 MOL      0.020361
     18 H7         -1.2880   -0.4310    2.9350 hc        1 MOL      0.020361
     19 N2          0.4650    3.0400    1.5400 n         1 MOL     -0.299871
     20 C7          0.8220    4.4420    1.2690 c3        1 MOL      0.028368
     21 C8         -0.2110    5.1510    0.4560 c         1 MOL      0.343202
     22 O5         -0.5080    6.2630    0.7630 o         1 MOL     -0.533598
     23 C9          2.2080    4.6390    0.5890 c3        1 MOL      0.081279
     24 C10         2.6990    6.1080    0.3710 c3        1 MOL     -0.499553
     25 C11         4.1300    6.1840   -0.1350 c3        1 MOL      0.166828
     26 C12         4.6060    7.6210   -0.5060 c3        1 MOL     -0.037698
     27 N3          5.9020    7.6630   -1.1630 n4        1 MOL     -0.283811
     28 H8          0.7500    2.3730    0.8320 hn        1 MOL     -0.004932
     29 H9          0.8750    4.9430    2.2410 h1        1 MOL      0.093461
     30 H10         2.1790    4.2210   -0.4170 hc        1 MOL      0.083666
     31 H11         2.9920    4.1690    1.1770 hc        1 MOL      0.083666
     32 H12         2.6250    6.6470    1.3200 hc        1 MOL      0.152239
     33 H13         2.0220    6.6330   -0.2970 hc        1 MOL      0.152239
     34 H14         4.2620    5.5690   -1.0220 hc        1 MOL      0.001984
     35 H15         4.8370    5.6560    0.5130 hc        1 MOL      0.001984
     36 H16         4.5830    8.2020    0.4140 hx        1 MOL      0.093775
     37 H17         3.7560    7.9250   -1.1180 hx        1 MOL      0.093775
     38 H18         5.8440    7.2670   -2.0950 hn        1 MOL      0.316008
     39 H19         6.1640    8.6120   -1.4120 hn        1 MOL      0.316008
     40 H20         6.5710    7.0590   -0.7260 hn        1 MOL      0.316008
     41 N4         -0.8290    4.5300   -0.5600 n         1 MOL     -0.174528
     42 C13        -1.7770    5.2580   -1.3950 c3        1 MOL     -0.106144
     43 C14        -3.2210    5.1180   -0.8090 c         1 MOL      0.428788
     44 O6         -4.1960    5.7090   -1.2880 o         1 MOL     -0.552672
     45 C15        -1.8680    4.7430   -2.8180 c3        1 MOL     -0.088223
     46 C16        -2.2540    3.2830   -2.9050 c         1 MOL      0.803426
     47 O7         -2.2390    2.4100   -2.0150 o         1 MOL     -0.727635
     48 O8         -2.5970    2.9700   -4.0430 o         1 MOL     -0.727635
     49 H21        -0.4620    3.6460   -0.8900 hn        1 MOL      0.238309
     50 H22        -1.4890    6.3120   -1.4760 h1        1 MOL      0.112567
     51 H23        -0.8460    4.8190   -3.1850 hc        1 MOL      0.034447
     52 H24        -2.4450    5.3700   -3.5100 hc        1 MOL      0.034447
     53 N5         -3.4480    4.4280    0.3020 n         1 MOL     -0.070230
     54 C17        -4.5710    4.4940    1.1500 c3        1 MOL     -0.369496
     55 C18        -5.6150    3.5580    0.5100 c         1 MOL      0.597635
     56 O9         -6.8060    3.6620    0.9280 o         1 MOL     -0.578066
     57 H25        -2.8050    3.6660    0.4670 hn        1 MOL      0.228056
     58 H26        -5.0600    5.4690    1.1800 h1        1 MOL      0.168074
     59 H27        -4.2380    4.1580    2.1380 h1        1 MOL      0.168074
     60 N6         -5.2470    2.6190   -0.3870 n         1 MOL     -0.340162
     61 C19        -6.2090    1.6260   -0.8850 c3        1 MOL     -0.000430
     62 C20        -6.5880    0.4990    0.1130 c         1 MOL      0.311909
     63 O10        -7.6160   -0.1700   -0.1470 o         1 MOL     -0.516066
     64 C21        -5.7340    1.0630   -2.2550 c3        1 MOL     -0.075858
     65 C22        -5.0100   -0.2370   -2.1610 c         1 MOL      0.502233
     66 N7         -5.3100   -1.1760   -3.0030 n         1 MOL     -0.631262
     67 O11        -4.0800   -0.4160   -1.3750 o         1 MOL     -0.549140
     68 H28        -4.3030    2.5680   -0.7270 hn        1 MOL      0.188540
     69 H29        -7.1360    2.1250   -1.1770 h1        1 MOL      0.112677
     70 H30        -5.0760    1.7000   -2.8310 hc        1 MOL      0.062448
     71 H31        -6.6480    0.9830   -2.8390 hc        1 MOL      0.062448
     72 H32        -6.0900   -1.1250   -3.6260 hn        1 MOL      0.308150
     73 H33        -4.9450   -2.1200   -2.9580 hn        1 MOL      0.308150
     74 N8         -5.8080    0.2590    1.1830 n         1 MOL      0.028188
     75 C23        -5.9950   -0.8600    2.0460 c3        1 MOL     -0.377181
     76 C24        -5.0880   -2.0700    1.8190 c         1 MOL      0.697083
     77 O12        -5.4390   -3.0730    2.3990 o         1 MOL     -0.555321
     78 H34        -5.0970    0.9360    1.4210 hn        1 MOL      0.185583
     79 H35        -7.0420   -1.1580    1.9420 h1        1 MOL      0.140484
     80 H36        -5.8580   -0.4180    3.0250 h1        1 MOL      0.140484
     81 N9         -3.9660   -1.9200    1.1220 n         1 MOL     -0.669573
     82 C25        -3.0100   -3.0930    1.0320 c3        1 MOL      0.450306
     83 C26        -1.5620   -2.6830    0.9390 c         1 MOL      0.694755
     84 O13        -1.3390   -1.6840    0.2810 o         1 MOL     -0.736522
     85 C27        -3.4020   -4.0130   -0.1620 c3        1 MOL     -0.246879
     86 C28        -4.8510   -4.5950   -0.2310 ca        1 MOL      0.164715
     87 C29        -5.0980   -5.9770   -0.0910 ca        1 MOL     -0.247059
     88 C30        -5.9030   -3.8050   -0.7490 ca        1 MOL     -0.247059
     89 C31        -6.3990   -6.4620   -0.4150 ca        1 MOL     -0.180423
     90 C32        -7.2680   -4.2420   -1.0370 ca        1 MOL     -0.180423
     91 C33        -7.4610   -5.6350   -0.8370 ca        1 MOL      0.289177
     92 O14        -8.6910   -6.2420   -1.0760 oh        1 MOL     -0.551199
     93 H37        -3.8890   -1.0470    0.6160 hn        1 MOL      0.293365
     94 H38        -3.0870   -3.7130    1.9310 h1        1 MOL     -0.031978
     95 H39        -2.6920   -4.8200   -0.0210 hc        1 MOL      0.051387
     96 H40        -3.1050   -3.6020   -1.1290 hc        1 MOL      0.051387
     97 H41        -4.3440   -6.6680    0.2500 ha        1 MOL      0.161518
     98 H42        -5.6800   -2.7610   -0.9120 ha        1 MOL      0.161518
     99 H43        -6.6310   -7.5110   -0.5030 ha        1 MOL      0.134696
    100 H44        -8.0310   -3.5860   -1.4190 ha        1 MOL      0.134696
    101 H45        -9.4160   -5.6200   -1.1870 ho        1 MOL      0.409604
    102 N10        -0.6100   -3.3670    1.5370 n         1 MOL     -0.659766
    103 C34         0.7890   -3.0030    1.5260 c3        1 MOL      0.136200
    104 C35         1.4710   -3.7350    0.2960 c         1 MOL      0.453769
    105 O15         1.5260   -4.9850    0.2670 o         1 MOL     -0.566469
    106 C36         1.5350   -3.3770    2.8400 c3        1 MOL      0.157070
    107 C37         0.7020   -2.9110    4.1190 c3        1 MOL      0.425400
    108 C38         2.8970   -2.7360    2.8570 c3        1 MOL     -0.385233
    109 C39         0.9390   -3.8040    5.3150 c3        1 MOL     -0.187798
    110 H46        -0.8810   -4.1030    2.1700 hn        1 MOL      0.318589
    111 H47         0.8140   -1.9320    1.3560 h1        1 MOL      0.070754
    112 H48         1.6210   -4.4690    2.8590 hc        1 MOL     -0.025511
    113 H49        -0.3750   -2.9780    3.9650 hc        1 MOL     -0.138823
    114 H50         0.8370   -1.8480    4.3110 hc        1 MOL     -0.138823
    115 H51         2.8210   -1.6950    3.1620 hc        1 MOL      0.064061
    116 H52         3.5260   -3.1860    3.6100 hc        1 MOL      0.064061
    117 H53         3.4030   -2.9570    1.9170 hc        1 MOL      0.064061
    118 H54         0.3590   -4.7130    5.1750 hc        1 MOL      0.027650
    119 H55         1.9770   -4.1110    5.3240 hc        1 MOL      0.027650
    120 H56         0.7530   -3.2380    6.2250 hc        1 MOL      0.027650
    121 N11         2.0470   -3.0040   -0.6630 n         1 MOL     -0.039630
    122 C40         3.0230   -3.5370   -1.6610 c3        1 MOL     -0.141951
    123 C41         4.4030   -3.4930   -1.1120 c         1 MOL      0.343366
    124 O16         4.7670   -2.6410   -0.3480 o         1 MOL     -0.216455
    125 C42         2.9320   -2.9220   -3.0480 c3        1 MOL     -0.082080
    126 O17         3.2180   -1.5330   -2.9890 oh        1 MOL     -0.450698
    127 H57         1.9490   -1.9960   -0.6120 hn        1 MOL      0.143183
    128 H58         2.7850   -4.5830   -1.8600 h1        1 MOL      0.089120
    129 H59         1.9230   -2.9740   -3.4420 h1        1 MOL      0.104629
    130 H60         3.6250   -3.3170   -3.7970 h1        1 MOL      0.104629
    131 H61         2.7240   -1.1840   -2.2430 ho        1 MOL      0.337944
    132 N12         5.3470   -4.3250   -1.5530 n         1 MOL     -0.304480
    133 C43         6.7150   -4.3680   -1.0830 c3        1 MOL     -0.015210
    134 C44         7.4900   -3.1120   -1.3500 c         1 MOL      0.486599
    135 O18         8.3540   -2.6720   -0.5190 o         1 MOL     -0.509600
    136 C45         7.4050   -5.6720   -1.7710 c3        1 MOL     -0.328765
    137 H62         5.0540   -5.0670   -2.1740 hn        1 MOL      0.254103
    138 H63         6.6370   -4.5550   -0.0180 h1        1 MOL      0.112416
    139 H64         8.3430   -5.8430   -1.2500 hc        1 MOL      0.111222
    140 H65         6.7030   -6.5070   -1.7810 hc        1 MOL      0.111222
    141 H66         7.7030   -5.4670   -2.7940 hc        1 MOL      0.111222
    142 N13         7.1110   -2.3380   -2.3900 n         1 MOL     -0.380526
    143 C46         7.5340   -0.9610   -2.4950 c3        1 MOL      0.170252
    144 C47         7.0630   -0.0260   -1.3020 c         1 MOL      0.298583
    145 O19         7.8550    0.7100   -0.7530 o         1 MOL     -0.492129
    146 C48         7.0490   -0.4660   -3.8560 c3        1 MOL     -0.228244
    147 H67         6.4680   -2.7520   -3.0620 hn        1 MOL      0.239535
    148 H68         8.6300   -0.9460   -2.5100 h1        1 MOL      0.062898
    149 H69         7.3570   -1.2560   -4.5430 hc        1 MOL      0.061763
    150 H70         5.9700   -0.2680   -3.8800 hc        1 MOL      0.061763
    151 H71         7.5490    0.4390   -4.1910 hc        1 MOL      0.061763
    152 N14         5.7730   -0.0930   -0.8700 n         1 MOL     -0.050097
    153 C49         5.2210    0.6140    0.3340 c3        1 MOL     -0.177429
    154 C50         5.7630    0.1020    1.6730 c         1 MOL      0.522142
    155 O20         6.0030    0.8770    2.5710 o         1 MOL     -0.563359
    156 C51         3.7160    0.5490    0.3290 c3        1 MOL      0.117345
    157 C52         3.1230    1.1130   -0.9690 c3        1 MOL     -0.230514
    158 C53         1.6830    0.8730   -1.0950 c         1 MOL      1.075656
    159 O21         0.9090    1.8360   -1.1250 o         1 MOL     -0.843458
    160 O22         1.3260   -0.3010   -1.2060 o         1 MOL     -0.843458
    161 H72         5.1750   -0.6970   -1.4030 hn        1 MOL      0.106226
    162 H73         5.5460    1.6510    0.2500 h1        1 MOL      0.088948
    163 H74         3.3840    1.0890    1.2160 hc        1 MOL      0.001021
    164 H75         3.3050   -0.4540    0.3830 hc        1 MOL      0.001021
    165 H76         3.6490    0.6820   -1.8180 hc        1 MOL     -0.005132
    166 H77         3.3460    2.1770   -0.9440 hc        1 MOL     -0.005132
    167 N15         6.0380   -1.1900    1.7470 n         1 MOL      0.011052
    168 C54         6.8730   -1.7450    2.8400 c3        1 MOL     -0.319232
    169 H78         7.9260   -1.6600    2.5710 h1        1 MOL      0.117446
    170 H79         6.6870   -1.1890    3.7580 h1        1 MOL      0.117446
    171 H80         6.6210   -2.7950    2.9930 h1        1 MOL      0.117446
    172 H81         5.7830   -1.6930    0.9120 hn        1 MOL      0.018278
    173 Ca1        -1.2010    0.1040   -1.6110 Ca        1 MOL      1.802186
    174 O23         0.5560    0.4670   -4.0840 oh        1 MOL     -0.842862
    175 H82        -0.1970    0.2540   -4.6410 ho        1 MOL      0.397277
    176 H83         1.3200    0.3180   -4.6460 ho        1 MOL      0.397277
    177 O24        -1.2240   -2.2140   -2.7350 oh        1 MOL     -0.842862
    178 H84        -1.7300   -2.2090   -3.5410 ho        1 MOL      0.397277
    179 H85        -0.7250   -3.0220   -2.7610 ho        1 MOL      0.397277
    180 O25        -2.7120    0.3950   -3.8800 oh        1 MOL     -0.842862
    181 H86        -3.4050    0.1260   -4.4780 ho        1 MOL      0.397277
    182 H87        -2.7400    1.3520   -3.9110 ho        1 MOL      0.397277
@<TRIPOS>BOND
     1    1    2 1   
     2    1    4 1   
     3    1    5 1   
     4    1    6 1   
     5    2    3 2   
     6    2    7 1   
     7    7    8 1   
     8    7   15 1   
     9    8    9 1   
    10    8   11 1   
    11    8   16 1   
    12    9   10 2   
    13    9   19 1   
    14   11   12 1   
    15   11   17 1   
    16   11   18 1   
    17   12   13 1   
    18   12   14 1   
    19   19   20 1   
    20   19   28 1   
    21   20   21 1   
    22   20   23 1   
    23   20   29 1   
    24   21   22 2   
    25   21   41 1   
    26   23   24 1   
    27   23   30 1   
    28   23   31 1   
    29   24   25 1   
    30   24   32 1   
    31   24   33 1   
    32   25   26 1   
    33   25   34 1   
    34   25   35 1   
    35   26   27 1   
    36   26   36 1   
    37   26   37 1   
    38   27   38 1   
    39   27   39 1   
    40   27   40 1   
    41   41   42 1   
    42   41   49 1   
    43   42   43 1   
    44   42   45 1   
    45   42   50 1   
    46   43   44 2   
    47   43   53 1   
    48   45   46 1   
    49   45   51 1   
    50   45   52 1   
    51   46   47 1   
    52   46   48 1   
    53   53   54 1   
    54   53   57 1   
    55   54   55 1   
    56   54   58 1   
    57   54   59 1   
    58   55   56 2   
    59   55   60 1   
    60   60   61 1   
    61   60   68 1   
    62   61   62 1   
    63   61   64 1   
    64   61   69 1   
    65   62   63 2   
    66   62   74 1   
    67   64   65 1   
    68   64   70 1   
    69   64   71 1   
    70   65   66 1   
    71   65   67 2   
    72   66   72 1   
    73   66   73 1   
    74   74   75 1   
    75   74   78 1   
    76   75   76 1   
    77   75   79 1   
    78   75   80 1   
    79   76   77 2   
    80   76   81 1   
    81   81   82 1   
    82   81   93 1   
    83   82   83 1   
    84   82   85 1   
    85   82   94 1   
    86   83   84 2   
    87   83  102 1   
    88   85   86 1   
    89   85   95 1   
    90   85   96 1   
    91   86   87 ar  
    92   86   88 ar  
    93   87   89 ar  
    94   87   97 1   
    95   88   90 ar  
    96   88   98 1   
    97   89   91 ar  
    98   89   99 1   
    99   90   91 ar  
   100   90  100 1   
   101   91   92 1   
   102   92  101 1   
   103  102  103 1   
   104  102  110 1   
   105  103  104 1   
   106  103  106 1   
   107  103  111 1   
   108  104  105 2   
   109  104  121 1   
   110  106  107 1   
   111  106  108 1   
   112  106  112 1   
   113  107  109 1   
   114  107  113 1   
   115  107  114 1   
   116  108  115 1   
   117  108  116 1   
   118  108  117 1   
   119  109  118 1   
   120  109  119 1   
   121  109  120 1   
   122  121  122 1   
   123  121  127 1   
   124  122  123 1   
   125  122  125 1   
   126  122  128 1   
   127  123  124 2   
   128  123  132 1   
   129  125  126 1   
   130  125  129 1   
   131  125  130 1   
   132  126  131 1   
   133  132  133 1   
   134  132  137 1   
   135  133  134 1   
   136  133  136 1   
   137  133  138 1   
   138  134  135 2   
   139  134  142 1   
   140  136  139 1   
   141  136  140 1   
   142  136  141 1   
   143  142  143 1   
   144  142  147 1   
   145  143  144 1   
   146  143  146 1   
   147  143  148 1   
   148  144  145 2   
   149  144  152 1   
   150  146  149 1   
   151  146  150 1   
   152  146  151 1   
   153  152  153 1   
   154  152  161 1   
   155  153  154 1   
   156  153  156 1   
   157  153  162 1   
   158  154  155 2   
   159  154  167 1   
   160  156  157 1   
   161  156  163 1   
   162  156  164 1   
   163  157  158 1   
   164  157  165 1   
   165  157  166 1   
   166  158  159 1   
   167  158  160 1   
   168  167  168 1   
   169  167  172 1   
   170  168  169 1   
   171  168  170 1   
   172  168  171 1   
   173  174  175 1   
   174  174  176 1   
   175  177  178 1   
   176  177  179 1   
   177  180  181 1   
   178  180  182 1   
@<TRIPOS>SUBSTRUCTURE
     1 MOL         1 TEMP              0 ****  ****    0 ROOT
