@<TRIPOS>MOLECULE
MOL
  189   185     1     0     0
SMALL
resp


@<TRIPOS>ATOM
      1 C1         -0.0580    1.0920    5.9870 c3        1 MOL     -0.386024
      2 C2         -0.6340    1.4260    4.5530 c         1 MOL      0.717760
      3 O1         -0.0130    2.2280    3.8830 o         1 MOL     -0.578361
      4 H1          0.2670    2.0140    6.4700 hc        1 MOL      0.092843
      5 H2         -0.8340    0.6210    6.5900 hc        1 MOL      0.092843
      6 H3          0.7900    0.4150    5.8900 hc        1 MOL      0.092843
      7 N1         -1.7890    0.8530    4.1990 n         1 MOL     -0.530754
      8 C3         -2.2900    0.9990    2.8840 c3        1 MOL     -0.026700
      9 C4         -2.7760    2.4110    2.5980 c         1 MOL      0.631547
     10 O2         -3.7070    2.8350    3.2980 o         1 MOL     -0.567606
     11 C5         -3.4480    0.0050    2.7220 c3        1 MOL     -0.191227
     12 C6         -4.1200   -0.0820    1.3250 c         1 MOL      0.842994
     13 O3         -5.1700   -0.7340    1.1620 o         1 MOL     -0.727721
     14 O4         -3.5510    0.4740    0.3330 o         1 MOL     -0.727721
     15 H4         -2.2470    0.1500    4.7640 hn        1 MOL      0.325461
     16 H5         -1.4480    0.7300    2.2440 h1        1 MOL      0.051969
     17 H6         -4.2230    0.2400    3.4490 hc        1 MOL      0.046625
     18 H7         -3.1550   -1.0010    3.0120 hc        1 MOL      0.046625
     19 N2         -2.1780    3.1230    1.6300 n         1 MOL     -0.427279
     20 C7         -2.4230    4.5580    1.4090 c3        1 MOL      0.158430
     21 C8         -3.7130    4.8190    0.5450 c         1 MOL      0.361409
     22 O5         -4.3860    5.8470    0.6550 o         1 MOL     -0.522973
     23 C9         -1.1930    5.3890    0.9980 c3        1 MOL      0.104060
     24 C10        -1.4880    6.8580    1.2960 c3        1 MOL     -0.136577
     25 C11        -0.2570    7.7650    1.0600 c3        1 MOL     -0.027340
     26 C12         0.0550    8.0360   -0.5150 c3        1 MOL     -0.008394
     27 N3          1.1740    8.9740   -0.6720 n4        1 MOL     -0.502781
     28 H8         -1.4080    2.7820    1.0780 hn        1 MOL      0.278480
     29 H9         -2.6940    4.8970    2.4150 h1        1 MOL      0.025636
     30 H10        -1.0460    5.2430   -0.0750 hc        1 MOL     -0.007149
     31 H11        -0.3190    5.0780    1.5760 hc        1 MOL     -0.007149
     32 H12        -1.7430    6.9640    2.3480 hc        1 MOL      0.068400
     33 H13        -2.3410    7.1380    0.6860 hc        1 MOL      0.068400
     34 H14         0.6540    7.4100    1.5400 hc        1 MOL      0.031368
     35 H15        -0.3660    8.7280    1.5510 hc        1 MOL      0.031368
     36 H16        -0.8880    8.4080   -0.9060 hx        1 MOL      0.115662
     37 H17         0.3920    7.0940   -0.9430 hx        1 MOL      0.115662
     38 H18         0.8940    9.8260   -0.1980 hn        1 MOL      0.368383
     39 H19         1.9830    8.5590   -0.2400 hn        1 MOL      0.368383
     40 H20         1.3630    9.1190   -1.6500 hn        1 MOL      0.368383
     41 N4         -3.9960    3.7670   -0.3510 n         1 MOL     -0.133404
     42 C13        -4.9740    3.8320   -1.3830 c3        1 MOL     -0.085371
     43 C14        -6.3510    3.3350   -1.0430 c         1 MOL      0.439869
     44 O6         -7.2830    3.6370   -1.8190 o         1 MOL     -0.515829
     45 C15        -4.3850    3.1520   -2.6380 c3        1 MOL     -0.067734
     46 C16        -2.9140    3.2650   -2.6720 c         1 MOL      0.652913
     47 O7         -2.2120    2.3720   -2.1710 o         1 MOL     -0.664214
     48 O8         -2.4240    4.2400   -3.3100 o         1 MOL     -0.664214
     49 H21        -3.3260    3.0120   -0.3330 hn        1 MOL      0.129382
     50 H22        -5.0110    4.8920   -1.6490 h1        1 MOL      0.072314
     51 H23        -4.8960    3.5470   -3.5170 hc        1 MOL      0.071074
     52 H24        -4.5560    2.0820   -2.5680 hc        1 MOL      0.071074
     53 N5         -6.4660    2.3610   -0.1500 n         1 MOL     -0.217434
     54 C17        -7.7420    1.6530    0.0150 c3        1 MOL     -0.070479
     55 C18        -7.9530    0.5280   -0.9450 c         1 MOL      0.536517
     56 O9         -8.9110    0.4170   -1.7400 o         1 MOL     -0.583855
     57 H25        -5.7440    1.9890    0.4510 hn        1 MOL      0.175461
     58 H26        -8.6490    2.2580   -0.0270 h1        1 MOL      0.056663
     59 H27        -7.7970    1.2210    1.0070 h1        1 MOL      0.056663
     60 N6         -7.0780   -0.3970   -0.9110 n         1 MOL     -0.297902
     61 C19        -7.0770   -1.5350   -1.7570 c3        1 MOL     -0.009360
     62 C20        -6.8970   -2.9700   -1.1040 c         1 MOL      0.441569
     63 O10        -7.0870   -4.0180   -1.7910 o         1 MOL     -0.533377
     64 C21        -6.0160   -1.3910   -2.8650 c3        1 MOL     -0.048944
     65 C22        -4.5780   -1.1530   -2.5070 c         1 MOL      0.873768
     66 O11        -3.9840   -1.8100   -1.6420 o         1 MOL     -0.857577
     67 O12        -4.0140   -0.2260   -3.0400 o         1 MOL     -0.857577
     68 H28        -6.3240   -0.2550   -0.2550 hn        1 MOL      0.215876
     69 H29        -8.0730   -1.6200   -2.2060 h1        1 MOL      0.096533
     70 H30        -6.3520   -0.6030   -3.5310 hc        1 MOL      0.019567
     71 H31        -6.0100   -2.3200   -3.4360 hc        1 MOL      0.019567
     72 N7         -6.6720   -3.0550    0.1740 n         1 MOL     -0.385920
     73 C23        -6.4540   -4.3870    0.8970 c3        1 MOL      0.024388
     74 C24        -5.0810   -4.9960    0.7200 c         1 MOL      0.519031
     75 O13        -4.9460   -6.1950    1.0390 o         1 MOL     -0.609895
     76 H32        -6.5270   -2.2220    0.7200 hn        1 MOL      0.278292
     77 H33        -7.1880   -5.1780    0.7570 h1        1 MOL      0.064850
     78 H34        -6.5050   -4.1390    1.9580 h1        1 MOL      0.064850
     79 N8         -4.0720   -4.3210    0.1990 n         1 MOL     -0.254117
     80 C25        -2.6890   -4.7280   -0.0340 c3        1 MOL     -0.049148
     81 C26        -1.6680   -3.5970    0.3280 c         1 MOL      0.479936
     82 O14        -1.9920   -2.3980    0.2530 o         1 MOL     -0.588498
     83 C27        -2.5130   -5.2910   -1.4630 c3        1 MOL      0.571455
     84 C28        -2.7580   -6.7850   -1.4930 c3        1 MOL     -0.512189
     85 O15        -3.3000   -4.6220   -2.4100 oh        1 MOL     -0.667789
     86 H35        -4.2870   -3.4280   -0.2320 hn        1 MOL      0.271904
     87 H36        -2.4860   -5.4970    0.7160 h1        1 MOL      0.050488
     88 H37        -1.5060   -5.1720   -1.8620 h1        1 MOL     -0.104458
     89 H38        -3.2770   -3.6650   -2.3690 ho        1 MOL      0.420835
     90 H39        -1.9070   -7.3390   -1.0970 hc        1 MOL      0.131498
     91 H40        -3.7050   -7.0040   -0.9990 hc        1 MOL      0.131498
     92 H41        -2.9860   -7.1430   -2.4920 hc        1 MOL      0.131498
     93 N9         -0.4840   -3.9790    0.8360 n         1 MOL     -0.541944
     94 C29         0.6170   -3.0830    1.2570 c3        1 MOL      0.059135
     95 C30         1.8020   -3.4050    0.3320 c         1 MOL      0.341688
     96 O16         2.3410   -4.5220    0.3740 o         1 MOL     -0.483864
     97 C31         0.8810   -3.2380    2.8000 c3        1 MOL      0.209662
     98 C32        -0.3690   -2.8770    3.6930 c3        1 MOL      0.093780
     99 C33         2.1050   -2.4450    3.2030 c3        1 MOL     -0.407494
    100 C34        -0.4430   -3.6430    4.9900 c3        1 MOL     -0.174030
    101 H42        -0.3800   -4.9840    0.7960 hn        1 MOL      0.310936
    102 H43         0.3550   -2.0390    1.0460 h1        1 MOL      0.067806
    103 H44         1.0470   -4.3110    2.9420 hc        1 MOL      0.009481
    104 H45        -1.2630   -3.1120    3.1120 hc        1 MOL      0.012483
    105 H46        -0.4360   -1.8240    3.9420 hc        1 MOL      0.012483
    106 H47         1.8810   -1.3700    3.2070 hc        1 MOL      0.075240
    107 H48         2.4260   -2.6390    4.2250 hc        1 MOL      0.075240
    108 H49         2.8890   -2.5770    2.4690 hc        1 MOL      0.075240
    109 H50        -1.3430   -3.3410    5.5320 hc        1 MOL      0.034166
    110 H51        -0.4130   -4.7280    4.8650 hc        1 MOL      0.034166
    111 H52         0.3770   -3.4180    5.6790 hc        1 MOL      0.034166
    112 N10         2.2070   -2.4640   -0.5560 n         1 MOL     -0.187485
    113 C35         3.5200   -2.6370   -1.3050 c3        1 MOL     -0.091045
    114 C36         4.7280   -2.6120   -0.3870 c         1 MOL      0.507257
    115 O17         4.6140   -2.1620    0.7620 o         1 MOL     -0.348567
    116 C37         3.7180   -1.6730   -2.4410 c3        1 MOL      0.105806
    117 C38         2.7670   -1.6100   -3.5880 c3        1 MOL     -0.454126
    118 O18         3.9110   -0.3550   -1.9660 oh        1 MOL     -0.487450
    119 H53         1.7740   -1.5610   -0.4760 hn        1 MOL      0.284437
    120 H54         3.5240   -3.6030   -1.8140 h1        1 MOL      0.103485
    121 H55         4.7260   -1.8690   -2.8220 h1        1 MOL      0.040292
    122 H56         4.2380    0.1590   -2.7010 ho        1 MOL      0.399966
    123 H57         2.6170   -2.5970   -4.0400 hc        1 MOL      0.139225
    124 H58         1.7920   -1.3360   -3.1990 hc        1 MOL      0.139225
    125 H59         3.1430   -0.9730   -4.3940 hc        1 MOL      0.139225
    126 N11         5.9180   -2.8650   -0.9590 n         1 MOL     -0.415163
    127 C39         7.1990   -2.7570   -0.2300 c3        1 MOL     -0.041564
    128 C40         7.5960   -1.3470    0.2460 c         1 MOL      0.273145
    129 O19         8.1370   -1.1410    1.3690 o         1 MOL     -0.456219
    130 C41         8.2930   -3.3740   -1.1060 c3        1 MOL      0.349641
    131 C42         9.5700   -3.8760   -0.3160 c3        1 MOL     -0.370429
    132 O20         7.8890   -4.5950   -1.7390 oh        1 MOL     -0.544645
    133 H60         6.0460   -3.1200   -1.9220 hn        1 MOL      0.245619
    134 H61         7.0880   -3.4350    0.6180 h1        1 MOL      0.136350
    135 H62         8.5330   -2.5240   -1.7380 h1        1 MOL     -0.053676
    136 H63         7.4740   -4.3260   -2.5600 ho        1 MOL      0.354825
    137 H64         9.2970   -4.7580    0.2600 hc        1 MOL      0.116322
    138 H65        10.3830   -4.0990   -1.0160 hc        1 MOL      0.116322
    139 H66        10.0000   -3.1550    0.3760 hc        1 MOL      0.116322
    140 N12         7.0960   -0.3550   -0.5390 n         1 MOL     -0.063436
    141 C43         7.1600    1.1320   -0.3310 c3        1 MOL     -0.014945
    142 C44         6.1970    1.5170    0.7990 c         1 MOL      0.320046
    143 O21         6.5610    2.2200    1.7360 o         1 MOL     -0.498746
    144 C45         6.7710    1.8110   -1.6960 c3        1 MOL     -0.187795
    145 C46         7.9050    1.8140   -2.7970 c3        1 MOL      0.030382
    146 C47         8.9850    2.8950   -2.6620 c3        1 MOL      0.043260
    147 C48         9.9710    2.9590   -3.8560 c3        1 MOL      0.040567
    148 N13        11.0420    3.9700   -3.6300 n4        1 MOL     -0.259224
    149 H67         6.5250   -0.6610   -1.3170 hn        1 MOL      0.132186
    150 H68         8.1820    1.3590   -0.0220 h1        1 MOL      0.098363
    151 H69         6.4740    2.8230   -1.4540 hc        1 MOL      0.083494
    152 H70         5.9180    1.2710   -2.0950 hc        1 MOL      0.083494
    153 H71         7.3480    1.9300   -3.7230 hc        1 MOL     -0.004580
    154 H72         8.3830    0.8310   -2.7330 hc        1 MOL     -0.004580
    155 H73         9.4850    2.6140   -1.7450 hc        1 MOL      0.018796
    156 H74         8.5720    3.9010   -2.5450 hc        1 MOL      0.018796
    157 H75         9.4300    3.1180   -4.7870 hx        1 MOL      0.071420
    158 H76        10.3890    1.9570   -3.9610 hx        1 MOL      0.071420
    159 H77        11.5310    4.0890   -4.5040 hn        1 MOL      0.253039
    160 H78        10.6750    4.8460   -3.3110 hn        1 MOL      0.253039
    161 H79        11.7030    3.7560   -2.9020 hn        1 MOL      0.253039
    162 N14         4.9580    1.0160    0.8380 n         1 MOL     -0.002550
    163 C49         3.9340    1.4150    1.7890 c3        1 MOL     -0.152688
    164 C50         4.3780    0.8900    3.1910 c         1 MOL      0.419883
    165 O22         4.1200    1.5430    4.1910 o         1 MOL     -0.539320
    166 C51         2.5530    0.8570    1.3110 c3        1 MOL      0.246486
    167 C52         2.0470    1.7020    0.1350 c3        1 MOL     -0.166756
    168 C53         0.7420    0.9910   -0.4140 c         1 MOL      0.787835
    169 O23         0.7130    0.3340   -1.4640 o         1 MOL     -0.806570
    170 O24        -0.3490    1.0690    0.1660 o         1 MOL     -0.806570
    171 H80         4.6820    0.3130    0.1610 hn        1 MOL     -0.044041
    172 H81         3.8040    2.4730    2.0150 h1        1 MOL      0.122308
    173 H82         1.8060    0.8710    2.1000 hc        1 MOL      0.002008
    174 H83         2.6400   -0.1840    0.9930 hc        1 MOL      0.002008
    175 H84         2.7990    1.9110   -0.6190 hc        1 MOL     -0.005717
    176 H85         1.7610    2.6210    0.6530 hc        1 MOL     -0.005717
    177 N15         5.1050   -0.2470    3.2470 n         1 MOL     -0.000778
    178 C54         5.8560   -0.8010    4.4130 c3        1 MOL     -0.303544
    179 H86         6.2570    0.0190    5.0090 h1        1 MOL      0.114997
    180 H87         5.1850   -1.4020    5.0270 h1        1 MOL      0.114997
    181 H88         6.6760   -1.4230    4.0550 h1        1 MOL      0.114997
    182 H89         5.1740   -0.7260    2.3610 hn        1 MOL      0.099055
    183 Ca1        -1.9230   -0.2210   -1.4830 Ca        1 MOL      1.810183
    184 O25        -0.6790    0.1830   -4.0180 oh        1 MOL     -0.771879
    185 H90        -0.6700    1.1350   -3.9700 ho        1 MOL      0.382489
    186 H91        -0.0400   -0.0270   -4.7030 ho        1 MOL      0.382489
    187 O26        -0.3540   -2.5200   -2.2850 oh        1 MOL     -0.771879
    188 H92        -0.3470   -2.8190   -3.1970 ho        1 MOL      0.382489
    189 H93         0.4900   -2.8140   -1.9250 ho        1 MOL      0.382489
@<TRIPOS>BOND
     1    1    2 1   
     2    1    4 1   
     3    1    5 1   
     4    1    6 1   
     5    2    3 2   
     6    2    7 1   
     7    7    8 1   
     8    7   15 1   
     9    8    9 1   
    10    8   11 1   
    11    8   16 1   
    12    9   10 2   
    13    9   19 1   
    14   11   12 1   
    15   11   17 1   
    16   11   18 1   
    17   12   13 1   
    18   12   14 1   
    19   19   20 1   
    20   19   28 1   
    21   20   21 1   
    22   20   23 1   
    23   20   29 1   
    24   21   22 2   
    25   21   41 1   
    26   23   24 1   
    27   23   30 1   
    28   23   31 1   
    29   24   25 1   
    30   24   32 1   
    31   24   33 1   
    32   25   26 1   
    33   25   34 1   
    34   25   35 1   
    35   26   27 1   
    36   26   36 1   
    37   26   37 1   
    38   27   38 1   
    39   27   39 1   
    40   27   40 1   
    41   41   42 1   
    42   41   49 1   
    43   42   43 1   
    44   42   45 1   
    45   42   50 1   
    46   43   44 2   
    47   43   53 1   
    48   45   46 1   
    49   45   51 1   
    50   45   52 1   
    51   46   47 1   
    52   46   48 1   
    53   53   54 1   
    54   53   57 1   
    55   54   55 1   
    56   54   58 1   
    57   54   59 1   
    58   55   56 2   
    59   55   60 1   
    60   60   61 1   
    61   60   68 1   
    62   61   62 1   
    63   61   64 1   
    64   61   69 1   
    65   62   63 2   
    66   62   72 1   
    67   64   65 1   
    68   64   70 1   
    69   64   71 1   
    70   65   66 1   
    71   65   67 1   
    72   72   73 1   
    73   72   76 1   
    74   73   74 1   
    75   73   77 1   
    76   73   78 1   
    77   74   75 2   
    78   74   79 1   
    79   79   80 1   
    80   79   86 1   
    81   80   81 1   
    82   80   83 1   
    83   80   87 1   
    84   81   82 2   
    85   81   93 1   
    86   83   84 1   
    87   83   85 1   
    88   83   88 1   
    89   84   90 1   
    90   84   91 1   
    91   84   92 1   
    92   85   89 1   
    93   93   94 1   
    94   93  101 1   
    95   94   95 1   
    96   94   97 1   
    97   94  102 1   
    98   95   96 2   
    99   95  112 1   
   100   97   98 1   
   101   97   99 1   
   102   97  103 1   
   103   98  100 1   
   104   98  104 1   
   105   98  105 1   
   106   99  106 1   
   107   99  107 1   
   108   99  108 1   
   109  100  109 1   
   110  100  110 1   
   111  100  111 1   
   112  112  113 1   
   113  112  119 1   
   114  113  114 1   
   115  113  116 1   
   116  113  120 1   
   117  114  115 2   
   118  114  126 1   
   119  116  117 1   
   120  116  118 1   
   121  116  121 1   
   122  117  123 1   
   123  117  124 1   
   124  117  125 1   
   125  118  122 1   
   126  126  127 1   
   127  126  133 1   
   128  127  128 1   
   129  127  130 1   
   130  127  134 1   
   131  128  129 2   
   132  128  140 1   
   133  130  131 1   
   134  130  132 1   
   135  130  135 1   
   136  131  137 1   
   137  131  138 1   
   138  131  139 1   
   139  132  136 1   
   140  140  141 1   
   141  140  149 1   
   142  141  142 1   
   143  141  144 1   
   144  141  150 1   
   145  142  143 2   
   146  142  162 1   
   147  144  145 1   
   148  144  151 1   
   149  144  152 1   
   150  145  146 1   
   151  145  153 1   
   152  145  154 1   
   153  146  147 1   
   154  146  155 1   
   155  146  156 1   
   156  147  148 1   
   157  147  157 1   
   158  147  158 1   
   159  148  159 1   
   160  148  160 1   
   161  148  161 1   
   162  162  163 1   
   163  162  171 1   
   164  163  164 1   
   165  163  166 1   
   166  163  172 1   
   167  164  165 2   
   168  164  177 1   
   169  166  167 1   
   170  166  173 1   
   171  166  174 1   
   172  167  168 1   
   173  167  175 1   
   174  167  176 1   
   175  168  169 1   
   176  168  170 1   
   177  177  178 1   
   178  177  182 1   
   179  178  179 1   
   180  178  180 1   
   181  178  181 1   
   182  184  185 1   
   183  184  186 1   
   184  187  188 1   
   185  187  189 1   
@<TRIPOS>SUBSTRUCTURE
     1 MOL         1 TEMP              0 ****  ****    0 ROOT
