@<TRIPOS>MOLECULE
MOL
  172   171     1     0     0
SMALL
resp


@<TRIPOS>ATOM
      1 C1          0.7620   -2.3270    6.6370 c3        1 MOL     -0.390167
      2 C2          0.8840   -2.4090    5.0870 c         1 MOL      0.735500
      3 O1          0.2010   -3.3610    4.6040 o         1 MOL     -0.562759
      4 H1          1.5350   -1.6660    7.0270 hc        1 MOL      0.090652
      5 H2         -0.2190   -1.9350    6.9040 hc        1 MOL      0.090652
      6 H3          0.8850   -3.3220    7.0640 hc        1 MOL      0.090652
      7 N1          1.7180   -1.6200    4.4260 n         1 MOL     -0.596702
      8 C3          1.9790   -1.6780    2.9500 c3        1 MOL     -0.081936
      9 C4          2.1720   -3.1120    2.4790 c         1 MOL      0.694915
     10 O2          2.7840   -3.9000    3.1870 o         1 MOL     -0.575059
     11 C5          3.1790   -0.7700    2.6300 c3        1 MOL      0.091162
     12 C6          3.2230   -0.4610    1.1530 c         1 MOL      0.526711
     13 O3          2.9900   -1.2810    0.2410 o         1 MOL     -0.658437
     14 O4          3.5090    0.6860    0.7700 o         1 MOL     -0.658437
     15 H4          2.1700   -0.8780    4.9440 hn        1 MOL      0.317185
     16 H5          1.1220   -1.2490    2.4270 h1        1 MOL      0.120397
     17 H6          4.0660   -1.2670    3.0310 hc        1 MOL      0.009983
     18 H7          3.0910    0.2030    3.1200 hc        1 MOL      0.009983
     19 N2          1.5840   -3.4540    1.3110 n         1 MOL     -0.596396
     20 C7          1.6220   -4.8740    0.7710 c3        1 MOL      0.316874
     21 C8          2.6880   -4.9570   -0.3500 c         1 MOL      0.338328
     22 O5          3.2680   -6.0140   -0.4540 o         1 MOL     -0.570143
     23 C9          0.2380   -5.1360    0.2020 c3        1 MOL     -0.247645
     24 H8          1.0840   -2.8020    0.7230 hn        1 MOL      0.270710
     25 H9          1.9520   -5.6620    1.4510 h1        1 MOL      0.046448
     26 H10        -0.0220   -4.6240   -0.7210 hc        1 MOL      0.054113
     27 H11         0.1830   -6.2090    0.0510 hc        1 MOL      0.054113
     28 H12        -0.5890   -4.9480    0.9010 hc        1 MOL      0.054113
     29 N3          3.0250   -3.8820   -1.0450 n         1 MOL     -0.007330
     30 C10         4.1100   -3.9040   -2.0850 c3        1 MOL     -0.013131
     31 C11         5.4280   -3.3650   -1.4850 c         1 MOL      0.353146
     32 O6          6.4810   -3.4440   -2.0910 o         1 MOL     -0.513354
     33 C12         3.6040   -3.2360   -3.3980 c3        1 MOL     -0.171907
     34 C13         3.0200   -1.8370   -3.1950 c         1 MOL      0.822136
     35 O7          3.7560   -1.0060   -2.6750 o         1 MOL     -0.740216
     36 O8          1.9650   -1.4350   -3.7310 o         1 MOL     -0.740216
     37 H13         2.7160   -2.9480   -0.7940 hn        1 MOL     -0.001652
     38 H14         4.2390   -4.9700   -2.3070 h1        1 MOL      0.101894
     39 H15         2.7010   -3.8190   -3.6170 hc        1 MOL      0.029872
     40 H16         4.3680   -3.3270   -4.1640 hc        1 MOL      0.029872
     41 N4          5.4860   -2.8410   -0.2390 n         1 MOL     -0.025691
     42 C14         6.6710   -2.6390    0.5330 c3        1 MOL     -0.310263
     43 C15         7.3200   -1.3260    0.2230 c         1 MOL      0.686074
     44 O9          8.5140   -1.1440    0.5200 o         1 MOL     -0.608414
     45 H17         4.5800   -2.6390    0.1700 hn        1 MOL      0.108040
     46 H18         7.3560   -3.4450    0.2480 h1        1 MOL      0.114951
     47 H19         6.6010   -2.6120    1.6180 h1        1 MOL      0.114951
     48 N5          6.5280   -0.2850   -0.1160 n         1 MOL     -0.302244
     49 C16         6.9980    0.9870   -0.6070 c3        1 MOL     -0.237161
     50 C17         6.5350    2.1480    0.2520 c         1 MOL      0.483915
     51 O10         6.6400    3.3230   -0.1130 o         1 MOL     -0.512233
     52 C18         6.5020    1.1780   -2.0590 c3        1 MOL     -0.056138
     53 C19         7.1970    0.2310   -3.0250 c         1 MOL      0.764346
     54 N6          6.3990   -0.5140   -3.7440 n         1 MOL     -0.966666
     55 O11         8.3740    0.1660   -3.0900 o         1 MOL     -0.597147
     56 H20         5.5440   -0.4950   -0.2320 hn        1 MOL      0.276826
     57 H21         8.0860    1.0470   -0.6160 h1        1 MOL      0.158519
     58 H22         6.7380    2.1290   -2.5290 hc        1 MOL      0.039144
     59 H23         5.4220    1.0160   -2.0730 hc        1 MOL      0.039144
     60 H24         5.4250   -0.2400   -3.7890 hn        1 MOL      0.415961
     61 H25         6.7380   -1.3510   -4.1990 hn        1 MOL      0.415961
     62 N7          6.1100    1.9330    1.5350 n         1 MOL     -0.185930
     63 C20         5.6170    2.8600    2.5380 c3        1 MOL     -0.200956
     64 C21         4.6630    3.9790    2.0630 c         1 MOL      0.674520
     65 O12         4.6270    5.0810    2.5530 o         1 MOL     -0.595543
     66 H26         6.0130    0.9480    1.7470 hn        1 MOL      0.143860
     67 H27         6.4350    3.4020    3.0000 h1        1 MOL      0.081748
     68 H28         5.0400    2.2390    3.2310 h1        1 MOL      0.081748
     69 N8          3.7980    3.6800    1.1090 n         1 MOL     -0.570775
     70 C22         2.6470    4.5350    0.6900 c3        1 MOL      0.109157
     71 C23         1.4040    3.6570    0.3690 c         1 MOL      0.507680
     72 O13         1.5480    2.6950   -0.4060 o         1 MOL     -0.547508
     73 C24         3.0810    5.3520   -0.5510 c3        1 MOL      0.285791
     74 C25         1.9130    6.0560   -1.1670 c3        1 MOL     -0.330783
     75 O14         4.0460    6.3400   -0.1940 oh        1 MOL     -0.578419
     76 H29         3.8810    2.7370    0.7490 hn        1 MOL      0.297776
     77 H30         2.4560    5.1640    1.5500 h1        1 MOL      0.070400
     78 H31         3.4460    4.5900   -1.2300 h1        1 MOL      0.031163
     79 H32         4.9240    5.9460   -0.2090 ho        1 MOL      0.386035
     80 H33         2.2400    6.5760   -2.0600 hc        1 MOL      0.090629
     81 H34         1.1350    5.3500   -1.4790 hc        1 MOL      0.090629
     82 H35         1.4920    6.8280   -0.5280 hc        1 MOL      0.090629
     83 N9          0.2510    4.0240    0.8360 n         1 MOL     -0.449771
     84 C26        -0.8480    3.1190    1.0310 c3        1 MOL      0.020995
     85 C27        -1.7320    3.1640   -0.2340 c         1 MOL      0.562926
     86 O15        -2.1360    4.2760   -0.6840 o         1 MOL     -0.605300
     87 C28        -1.5020    3.3270    2.3990 c3        1 MOL      0.115970
     88 C29        -0.6080    2.6070    3.4560 c3        1 MOL      0.117769
     89 C30        -3.0040    2.9270    2.4900 c3        1 MOL     -0.169058
     90 C31        -1.1440    3.1440    4.8130 c3        1 MOL     -0.313832
     91 H36         0.3020    4.8330    1.4320 hn        1 MOL      0.262030
     92 H37        -0.5170    2.0750    0.9950 h1        1 MOL      0.026801
     93 H38        -1.4470    4.3970    2.6220 hc        1 MOL      0.006503
     94 H39         0.4050    2.9940    3.3630 hc        1 MOL     -0.003737
     95 H40        -0.6600    1.5320    3.2850 hc        1 MOL     -0.003737
     96 H41        -3.1000    1.9180    2.0930 hc        1 MOL      0.035657
     97 H42        -3.4100    2.8740    3.5110 hc        1 MOL      0.035657
     98 H43        -3.6170    3.6610    1.9580 hc        1 MOL      0.035657
     99 H44        -0.3650    2.9980    5.5580 hc        1 MOL      0.065938
    100 H45        -1.1350    4.2360    4.7920 hc        1 MOL      0.065938
    101 H46        -2.0940    2.6800    5.0850 hc        1 MOL      0.065938
    102 N10        -2.0220    1.9880   -0.7350 n         1 MOL     -0.243924
    103 C32        -3.0140    1.8360   -1.7920 c3        1 MOL      0.130208
    104 C33        -4.2770    1.2250   -1.2290 c         1 MOL      0.323563
    105 O16        -4.2280    0.7260   -0.0890 o         1 MOL     -0.307687
    106 C34        -2.4940    1.0080   -2.9800 c3        1 MOL     -0.101954
    107 C35        -1.1590    1.4850   -3.5520 c         1 MOL      0.716813
    108 O17        -1.1590    2.3810   -4.4050 o         1 MOL     -0.704564
    109 O18        -0.1040    0.9930   -3.1230 o         1 MOL     -0.704564
    110 H47        -1.4480    1.2340   -0.3820 hn        1 MOL      0.075865
    111 H48        -3.3920    2.7740   -2.1850 h1        1 MOL      0.050115
    112 H49        -3.2240    0.9620   -3.7950 hc        1 MOL      0.013553
    113 H50        -2.3910    0.0170   -2.5500 hc        1 MOL      0.013553
    114 N11        -5.4520    1.3980   -1.8920 n         1 MOL     -0.534779
    115 C36        -6.7990    1.0240   -1.2770 c3        1 MOL      0.171300
    116 C37        -6.8810   -0.3750   -0.7300 c         1 MOL      0.487528
    117 O19        -7.2600   -0.4740    0.4210 o         1 MOL     -0.504827
    118 C38        -7.9790    1.4040   -2.2190 c3        1 MOL     -0.215761
    119 C39        -9.3060    1.1180   -1.5560 ca        1 MOL      0.104477
    120 C40        -9.7140    1.9030   -0.4480 ca        1 MOL     -0.204315
    121 C41       -10.1790    0.0620   -1.9120 ca        1 MOL     -0.204315
    122 C42       -11.0050    1.7220    0.0920 ca        1 MOL     -0.038899
    123 C43       -11.3600   -0.2450   -1.2430 ca        1 MOL     -0.038899
    124 C44       -11.8440    0.5980   -0.2840 ca        1 MOL     -0.195769
    125 H51        -5.4630    1.8530   -2.7890 hn        1 MOL      0.313948
    126 H52        -6.9730    1.7320   -0.4690 h1        1 MOL      0.096864
    127 H53        -7.9350    0.9470   -3.2090 hc        1 MOL      0.081257
    128 H54        -8.0340    2.4700   -2.4520 hc        1 MOL      0.081257
    129 H55        -9.1460    2.7660   -0.1120 ha        1 MOL      0.118373
    130 H56        -9.8710   -0.5970   -2.7100 ha        1 MOL      0.118373
    131 H57       -11.2930    2.5060    0.7830 ha        1 MOL      0.092835
    132 H58       -11.9570   -1.1210   -1.4510 ha        1 MOL      0.092835
    133 H59       -12.7290    0.3930    0.2980 ha        1 MOL      0.126948
    134 N12        -6.4650   -1.4100   -1.4740 n         1 MOL     -0.168274
    135 C45        -6.2850   -2.7330   -0.9070 c3        1 MOL     -0.076387
    136 C46        -5.4360   -2.7470    0.4210 c         1 MOL      0.270002
    137 O20        -5.7110   -3.5780    1.2730 o         1 MOL     -0.521702
    138 C47        -5.6720   -3.5170   -2.0810 c3        1 MOL      0.198334
    139 C48        -6.1470   -2.8500   -3.3270 c3        1 MOL     -0.253333
    140 C49        -6.0100   -1.3770   -2.9030 c3        1 MOL      0.130588
    141 H60        -7.3010   -3.1280   -0.7930 h1        1 MOL      0.081037
    142 H61        -4.5880   -3.4970   -1.9650 hc        1 MOL     -0.010455
    143 H62        -5.9720   -4.5630   -2.1350 hc        1 MOL     -0.010455
    144 H63        -5.4520   -2.9550   -4.1660 hc        1 MOL      0.072852
    145 H64        -7.1970   -3.1030   -3.5030 hc        1 MOL      0.072852
    146 H65        -5.0170   -0.9640   -3.0220 h1        1 MOL      0.001477
    147 H66        -6.7300   -0.7250   -3.3970 h1        1 MOL      0.001477
    148 N13        -4.5060   -1.8900    0.6070 n         1 MOL     -0.062060
    149 C50        -3.7000   -1.9190    1.8370 c3        1 MOL     -0.266369
    150 C51        -4.2530   -1.0240    2.9220 c         1 MOL      0.553621
    151 O21        -3.9140   -1.3340    4.0600 o         1 MOL     -0.572914
    152 C52        -2.3270   -1.2830    1.5150 c3        1 MOL      0.077460
    153 C53        -1.7220   -1.9370    0.2190 c3        1 MOL     -0.086834
    154 C54        -0.4510   -1.1820   -0.2110 c         1 MOL      0.580279
    155 O22        -0.1760    0.0250    0.1030 o         1 MOL     -0.664139
    156 O23         0.3750   -1.8270   -0.9300 o         1 MOL     -0.664139
    157 H67        -4.4480   -1.0880   -0.0160 hn        1 MOL      0.144515
    158 H68        -3.5050   -2.9660    2.0730 h1        1 MOL      0.183165
    159 H69        -1.6860   -1.4560    2.3800 hc        1 MOL      0.020877
    160 H70        -2.3060   -0.2090    1.3760 hc        1 MOL      0.020877
    161 H71        -2.3680   -1.9180   -0.6680 hc        1 MOL      0.059610
    162 H72        -1.4570   -2.9600    0.5060 hc        1 MOL      0.059610
    163 N14        -5.1260   -0.0580    2.6460 n         1 MOL     -0.062701
    164 C55        -5.9560    0.6940    3.6720 c3        1 MOL     -0.272178
    165 H73        -6.8510    0.1190    3.9080 h1        1 MOL      0.101951
    166 H74        -5.3690    0.8400    4.5790 h1        1 MOL      0.101951
    167 H75        -6.2450    1.6640    3.2660 h1        1 MOL      0.101951
    168 H76        -5.1870    0.3480    1.7230 hn        1 MOL      0.075691
    169 Ca1         1.8300    0.3300   -1.4610 Ca        1 MOL      1.701426
    170 O24         3.3600    1.8280   -3.1260 oh        1 MOL     -0.902196
    171 H77         2.7060    2.4540   -3.4340 ho        1 MOL      0.421568
    172 H78         3.8530    1.5790   -3.9090 ho        1 MOL      0.421568
@<TRIPOS>BOND
     1    1    2 1   
     2    1    4 1   
     3    1    5 1   
     4    1    6 1   
     5    2    3 2   
     6    2    7 1   
     7    7    8 1   
     8    7   15 1   
     9    8    9 1   
    10    8   11 1   
    11    8   16 1   
    12    9   10 2   
    13    9   19 1   
    14   11   12 1   
    15   11   17 1   
    16   11   18 1   
    17   12   13 1   
    18   12   14 1   
    19   19   20 1   
    20   19   24 1   
    21   20   21 1   
    22   20   23 1   
    23   20   25 1   
    24   21   22 2   
    25   21   29 1   
    26   23   26 1   
    27   23   27 1   
    28   23   28 1   
    29   29   30 1   
    30   29   37 1   
    31   30   31 1   
    32   30   33 1   
    33   30   38 1   
    34   31   32 2   
    35   31   41 1   
    36   33   34 1   
    37   33   39 1   
    38   33   40 1   
    39   34   35 1   
    40   34   36 1   
    41   41   42 1   
    42   41   45 1   
    43   42   43 1   
    44   42   46 1   
    45   42   47 1   
    46   43   44 2   
    47   43   48 1   
    48   48   49 1   
    49   48   56 1   
    50   49   50 1   
    51   49   52 1   
    52   49   57 1   
    53   50   51 2   
    54   50   62 1   
    55   52   53 1   
    56   52   58 1   
    57   52   59 1   
    58   53   54 1   
    59   53   55 2   
    60   54   60 1   
    61   54   61 1   
    62   62   63 1   
    63   62   66 1   
    64   63   64 1   
    65   63   67 1   
    66   63   68 1   
    67   64   65 2   
    68   64   69 1   
    69   69   70 1   
    70   69   76 1   
    71   70   71 1   
    72   70   73 1   
    73   70   77 1   
    74   71   72 2   
    75   71   83 1   
    76   73   74 1   
    77   73   75 1   
    78   73   78 1   
    79   74   80 1   
    80   74   81 1   
    81   74   82 1   
    82   75   79 1   
    83   83   84 1   
    84   83   91 1   
    85   84   85 1   
    86   84   87 1   
    87   84   92 1   
    88   85   86 2   
    89   85  102 1   
    90   87   88 1   
    91   87   89 1   
    92   87   93 1   
    93   88   90 1   
    94   88   94 1   
    95   88   95 1   
    96   89   96 1   
    97   89   97 1   
    98   89   98 1   
    99   90   99 1   
   100   90  100 1   
   101   90  101 1   
   102  102  103 1   
   103  102  110 1   
   104  103  104 1   
   105  103  106 1   
   106  103  111 1   
   107  104  105 2   
   108  104  114 1   
   109  106  107 1   
   110  106  112 1   
   111  106  113 1   
   112  107  108 1   
   113  107  109 1   
   114  114  115 1   
   115  114  125 1   
   116  115  116 1   
   117  115  118 1   
   118  115  126 1   
   119  116  117 2   
   120  116  134 1   
   121  118  119 1   
   122  118  127 1   
   123  118  128 1   
   124  119  120 ar  
   125  119  121 ar  
   126  120  122 ar  
   127  120  129 1   
   128  121  123 ar  
   129  121  130 1   
   130  122  124 ar  
   131  122  131 1   
   132  123  124 ar  
   133  123  132 1   
   134  124  133 1   
   135  134  135 1   
   136  134  140 1   
   137  135  136 1   
   138  135  138 1   
   139  135  141 1   
   140  136  137 2   
   141  136  148 1   
   142  138  139 1   
   143  138  142 1   
   144  138  143 1   
   145  139  140 1   
   146  139  144 1   
   147  139  145 1   
   148  140  146 1   
   149  140  147 1   
   150  148  149 1   
   151  148  157 1   
   152  149  150 1   
   153  149  152 1   
   154  149  158 1   
   155  150  151 2   
   156  150  163 1   
   157  152  153 1   
   158  152  159 1   
   159  152  160 1   
   160  153  154 1   
   161  153  161 1   
   162  153  162 1   
   163  154  155 1   
   164  154  156 1   
   165  163  164 1   
   166  163  168 1   
   167  164  165 1   
   168  164  166 1   
   169  164  167 1   
   170  170  171 1   
   171  170  172 1   
@<TRIPOS>SUBSTRUCTURE
     1 MOL         1 TEMP              0 ****  ****    0 ROOT
