@<TRIPOS>MOLECULE
MOL
  189   185     1     0     0
SMALL
resp


@<TRIPOS>ATOM
      1 C1         -0.5570    3.0120   -4.9700 c3        1 MOL     -0.570053
      2 C2          0.0860    2.6790   -3.6020 c         1 MOL      0.695540
      3 O1         -0.5020    3.0100   -2.6010 o         1 MOL     -0.615596
      4 H1         -0.6180    4.0940   -5.0890 hc        1 MOL      0.148273
      5 H2          0.0520    2.5920   -5.7710 hc        1 MOL      0.148273
      6 H3         -1.5590    2.5850   -5.0150 hc        1 MOL      0.148273
      7 N1          1.3060    2.1860   -3.5670 n         1 MOL     -0.532332
      8 C3          2.0470    1.9130   -2.2840 c3        1 MOL      0.203819
      9 C4          2.5710    3.1580   -1.6380 c         1 MOL      0.372648
     10 O2          3.7510    3.4540   -1.6490 o         1 MOL     -0.465276
     11 C5          3.1330    0.8560   -2.6280 c3        1 MOL     -0.264174
     12 C6          3.8590    0.2430   -1.3810 c         1 MOL      0.638922
     13 O3          3.2770    0.2890   -0.2330 o         1 MOL     -0.639558
     14 O4          4.8240   -0.5450   -1.5070 o         1 MOL     -0.639558
     15 H4          1.6940    1.9160   -4.4550 hn        1 MOL      0.312508
     16 H5          1.4160    1.4190   -1.5490 h1        1 MOL      0.028106
     17 H6          3.7790    1.2300   -3.4330 hc        1 MOL      0.078990
     18 H7          2.5880    0.0200   -3.0600 hc        1 MOL      0.078990
     19 N2          1.7350    3.8620   -0.8590 n         1 MOL     -0.223140
     20 C7          2.1380    5.1940   -0.4060 c3        1 MOL      0.011685
     21 C8          3.2700    5.1700    0.6410 c         1 MOL      0.410985
     22 O5          4.0730    6.0500    0.7960 o         1 MOL     -0.541213
     23 C9          1.0140    6.0630    0.1150 c3        1 MOL     -0.211256
     24 C10        -0.0900    6.3320   -0.9900 c3        1 MOL      0.319724
     25 C11         0.3460    7.2390   -2.2100 c3        1 MOL      0.025084
     26 C12        -0.7720    8.0820   -2.7470 c3        1 MOL     -0.147925
     27 N3         -1.7120    7.2120   -3.5230 n4        1 MOL     -0.157855
     28 H8          0.8020    3.5190   -0.7000 hn        1 MOL      0.253149
     29 H9          2.5170    5.7140   -1.2940 h1        1 MOL      0.025121
     30 H10         1.4480    7.0040    0.4330 hc        1 MOL      0.063035
     31 H11         0.5820    5.6400    1.0200 hc        1 MOL      0.063035
     32 H12        -0.9370    6.7920   -0.4930 hc        1 MOL     -0.081630
     33 H13        -0.3720    5.3600   -1.3880 hc        1 MOL     -0.081630
     34 H14         0.5800    6.6390   -3.0880 hc        1 MOL      0.027809
     35 H15         1.1110    7.9450   -1.8950 hc        1 MOL      0.027809
     36 H16        -0.2640    8.6790   -3.4940 hx        1 MOL      0.115776
     37 H17        -1.1860    8.6910   -1.9330 hx        1 MOL      0.115776
     38 H18        -2.4570    7.7800   -3.9100 hn        1 MOL      0.278232
     39 H19        -1.3110    6.5960   -4.2150 hn        1 MOL      0.278232
     40 H20        -2.1910    6.6560   -2.8240 hn        1 MOL      0.278232
     41 N4          3.2590    4.0650    1.3600 n         1 MOL     -0.137259
     42 C13         4.1710    3.8420    2.5120 c3        1 MOL      0.106617
     43 C14         5.4040    2.9830    2.0100 c         1 MOL      0.442322
     44 O6          6.4160    3.0020    2.7170 o         1 MOL     -0.545943
     45 C15         3.4730    3.2410    3.7110 c3        1 MOL     -0.303518
     46 C16         2.6370    1.9410    3.5170 c         1 MOL      0.813068
     47 O7          3.0200    1.1270    2.6160 o         1 MOL     -0.741579
     48 O8          1.5410    1.7900    4.2010 o         1 MOL     -0.741579
     49 H21         2.4520    3.4610    1.2620 hn        1 MOL      0.166233
     50 H22         4.6280    4.7670    2.8400 h1        1 MOL      0.066327
     51 H23         2.7690    4.0070    4.0340 hc        1 MOL      0.064446
     52 H24         4.1750    2.9230    4.4770 hc        1 MOL      0.064446
     53 N5          5.3440    2.2830    0.8470 n         1 MOL     -0.126055
     54 C17         6.5500    1.8040    0.1760 c3        1 MOL     -0.254893
     55 C18         7.1500    0.5960    0.7880 c         1 MOL      0.599021
     56 O9          8.3270    0.4240    0.5550 o         1 MOL     -0.605868
     57 H25         4.4570    2.1690    0.3830 hn        1 MOL      0.071835
     58 H26         7.2810    2.6080    0.2200 h1        1 MOL      0.127846
     59 H27         6.3300    1.5970   -0.8740 h1        1 MOL      0.127846
     60 N6          6.3830   -0.3470    1.3080 n         1 MOL     -0.285520
     61 C19         6.7910   -1.6900    1.8590 c3        1 MOL     -0.038247
     62 C20         6.9640   -2.7460    0.7640 c         1 MOL      0.397588
     63 O10         7.2760   -3.9090    0.9730 o         1 MOL     -0.546723
     64 C21         5.8720   -2.1960    3.0300 c3        1 MOL     -0.189900
     65 C22         4.4230   -2.0980    2.6870 c         1 MOL      0.825280
     66 O11         3.5640   -2.0030    3.6320 o         1 MOL     -0.732513
     67 O12         3.9990   -2.2660    1.5450 o         1 MOL     -0.732513
     68 H28         5.3860   -0.1850    1.3040 hn        1 MOL      0.179007
     69 H29         7.8030   -1.5830    2.2450 h1        1 MOL      0.116035
     70 H30         6.1250   -1.6010    3.9120 hc        1 MOL      0.068703
     71 H31         6.0520   -3.2450    3.2590 hc        1 MOL      0.068703
     72 N7          6.5870   -2.4550   -0.4530 n         1 MOL     -0.097537
     73 C23         6.5730   -3.3230   -1.6620 c3        1 MOL     -0.311692
     74 C24         5.4260   -4.2000   -1.8960 c         1 MOL      0.672072
     75 O13         5.5440   -5.2820   -2.4850 o         1 MOL     -0.579952
     76 H32         6.0730   -1.6060   -0.6440 hn        1 MOL      0.200821
     77 H33         7.4080   -4.0080   -1.5000 h1        1 MOL      0.115009
     78 H34         6.6480   -2.7270   -2.5630 h1        1 MOL      0.115009
     79 N8          4.2650   -3.7140   -1.4460 n         1 MOL     -0.374168
     80 C25         2.9550   -4.4010   -1.4050 c3        1 MOL     -0.270667
     81 C26         1.7870   -3.4830   -1.3470 c         1 MOL      0.758500
     82 O14         1.7420   -2.4720   -0.5580 o         1 MOL     -0.659113
     83 C27         2.7670   -5.3690   -0.2810 c3        1 MOL      0.470472
     84 C28         3.5220   -6.6830   -0.5690 c3        1 MOL     -0.421444
     85 O15         3.2680   -4.9680    0.9930 oh        1 MOL     -0.637075
     86 H35         4.3080   -2.7540   -1.1570 hn        1 MOL      0.294225
     87 H36         2.9370   -4.9020   -2.3770 h1        1 MOL      0.109531
     88 H37         1.7210   -5.6400   -0.2340 h1        1 MOL     -0.011147
     89 H38         3.6080   -4.0850    0.8770 ho        1 MOL      0.462390
     90 H39         3.2900   -7.4810    0.1350 hc        1 MOL      0.107819
     91 H40         3.3960   -7.1300   -1.5520 hc        1 MOL      0.107819
     92 H41         4.5920   -6.4840   -0.4850 hc        1 MOL      0.107819
     93 N9          0.7590   -3.7850   -2.1070 n         1 MOL     -0.572363
     94 C29        -0.4250   -2.8670   -2.1230 c3        1 MOL     -0.169579
     95 C30        -1.6620   -3.3980   -1.2740 c         1 MOL      0.597554
     96 O16        -2.1320   -4.5550   -1.5880 o         1 MOL     -0.570740
     97 C31        -0.8680   -2.7280   -3.5860 c3        1 MOL      0.342973
     98 C32         0.2890   -2.0770   -4.3640 c3        1 MOL      0.203763
     99 C33        -2.1900   -1.8590   -3.6860 c3        1 MOL     -0.422627
    100 C34         0.0580   -1.8140   -5.8910 c3        1 MOL     -0.349077
    101 H42         0.7600   -4.6060   -2.6880 hn        1 MOL      0.310857
    102 H43        -0.2690   -1.8440   -1.8030 h1        1 MOL      0.187391
    103 H44        -1.0680   -3.5960   -4.2070 hc        1 MOL     -0.034255
    104 H45         1.1890   -2.6870   -4.4140 hc        1 MOL     -0.043211
    105 H46         0.6410   -1.1980   -3.8240 hc        1 MOL     -0.043211
    106 H47        -2.9890   -2.4450   -3.2370 hc        1 MOL      0.071922
    107 H48        -2.0700   -0.9610   -3.0790 hc        1 MOL      0.071922
    108 H49        -2.2630   -1.4490   -4.6960 hc        1 MOL      0.071922
    109 H50        -0.7270   -1.0960   -6.1310 hc        1 MOL      0.079742
    110 H51         1.0140   -1.4740   -6.3070 hc        1 MOL      0.079742
    111 H52        -0.2610   -2.7370   -6.3760 hc        1 MOL      0.079742
    112 N10        -2.2450   -2.7000   -0.2740 n         1 MOL     -0.217284
    113 C35        -3.5060   -3.0080    0.5450 c3        1 MOL     -0.265670
    114 C36        -4.8330   -2.6730   -0.2420 c         1 MOL      0.491796
    115 O17        -4.8590   -1.9070   -1.1870 o         1 MOL     -0.367234
    116 C37        -3.4300   -2.3960    1.9480 c3        1 MOL      0.250232
    117 C38        -2.4750   -3.0320    2.9400 c3        1 MOL     -0.555950
    118 O18        -3.0380   -1.0140    1.7780 oh        1 MOL     -0.573343
    119 H53        -1.8730   -1.7990   -0.0160 hn        1 MOL      0.151571
    120 H54        -3.4910   -4.0970    0.6580 h1        1 MOL      0.135425
    121 H55        -4.4270   -2.3060    2.3940 h1        1 MOL      0.069555
    122 H56        -2.1650   -1.0370    1.3830 ho        1 MOL      0.413269
    123 H57        -1.4800   -3.0070    2.5020 hc        1 MOL      0.170947
    124 H58        -2.5500   -2.5390    3.9070 hc        1 MOL      0.170947
    125 H59        -2.6290   -4.1080    3.0330 hc        1 MOL      0.170947
    126 N11        -5.9730   -3.3110    0.1370 n         1 MOL     -0.337775
    127 C39        -7.3230   -2.7620   -0.3180 c3        1 MOL     -0.327502
    128 C40        -7.3960   -1.2580   -0.1480 c         1 MOL      0.417784
    129 O19        -8.0910   -0.6280   -0.9080 o         1 MOL     -0.470526
    130 C41        -8.5660   -3.5000    0.3320 c3        1 MOL      0.353571
    131 C42        -8.5920   -4.8930   -0.3230 c3        1 MOL     -0.406729
    132 O20        -8.4740   -3.7530    1.7490 oh        1 MOL     -0.605916
    133 H60        -5.9760   -4.0270    0.8510 hn        1 MOL      0.296443
    134 H61        -7.3140   -2.9320   -1.4000 h1        1 MOL      0.201570
    135 H62        -9.5400   -3.0730    0.1170 h1        1 MOL      0.063786
    136 H63        -9.3440   -3.6210    2.1400 ho        1 MOL      0.396390
    137 H64        -8.3710   -4.9670   -1.3830 hc        1 MOL      0.114290
    138 H65        -7.8460   -5.4740    0.2270 hc        1 MOL      0.114290
    139 H66        -9.5860   -5.2910   -0.1040 hc        1 MOL      0.114290
    140 N12        -6.9060   -0.7290    0.9580 n         1 MOL     -0.237942
    141 C43        -6.9350    0.6960    1.3230 c3        1 MOL     -0.178112
    142 C44        -6.1760    1.4560    0.2260 c         1 MOL      0.382774
    143 O21        -6.8480    2.3080   -0.3300 o         1 MOL     -0.483428
    144 C45        -6.4450    0.8530    2.7210 c3        1 MOL      0.063200
    145 C46        -6.4670    2.3350    3.1320 c3        1 MOL     -0.205959
    146 C47        -5.8000    2.4340    4.5710 c3        1 MOL     -0.074021
    147 C48        -6.5520    1.7300    5.7150 c3        1 MOL     -0.006079
    148 N13        -6.0830    2.1910    7.0620 n4        1 MOL     -0.255589
    149 H67        -6.4170   -1.3530    1.5770 hn        1 MOL      0.167782
    150 H68        -7.9980    0.9590    1.3460 h1        1 MOL      0.141957
    151 H69        -5.4360    0.4910    2.8850 hc        1 MOL      0.029996
    152 H70        -7.0320    0.2900    3.4450 hc        1 MOL      0.029996
    153 H71        -7.4710    2.7370    3.1460 hc        1 MOL      0.096225
    154 H72        -5.8910    2.9070    2.3990 hc        1 MOL      0.096225
    155 H73        -5.6450    3.4830    4.8150 hc        1 MOL      0.063342
    156 H74        -4.7690    2.0820    4.6160 hc        1 MOL      0.063342
    157 H75        -6.4960    0.6430    5.6780 hx        1 MOL      0.091633
    158 H76        -7.6090    1.8690    5.5200 hx        1 MOL      0.091633
    159 H77        -5.0750    2.2000    7.1930 hn        1 MOL      0.279340
    160 H78        -6.3590    3.1570    7.1940 hn        1 MOL      0.279340
    161 H79        -6.5320    1.7070    7.8250 hn        1 MOL      0.279340
    162 N14        -4.9230    1.0810   -0.0490 n         1 MOL      0.031926
    163 C49        -4.0770    1.7650   -1.0070 c3        1 MOL     -0.344094
    164 C50        -4.6880    1.8000   -2.4880 c         1 MOL      0.486288
    165 O22        -4.6690    2.7710   -3.1670 o         1 MOL     -0.550014
    166 C51        -2.7300    1.0900   -0.9800 c3        1 MOL      0.182414
    167 C52        -1.9230    1.6420    0.1450 c3        1 MOL     -0.287912
    168 C53        -0.6620    0.7940    0.5130 c         1 MOL      0.788026
    169 O23        -0.7260   -0.4570    0.5120 o         1 MOL     -0.736640
    170 O24         0.4650    1.2770    0.8630 o         1 MOL     -0.736640
    171 H80        -4.5470    0.3520    0.5380 hn        1 MOL      0.153071
    172 H81        -3.8850    2.8250   -0.8600 h1        1 MOL      0.134245
    173 H82        -2.1560    1.2720   -1.8950 hc        1 MOL      0.009256
    174 H83        -2.7460    0.0030   -0.9230 hc        1 MOL      0.009256
    175 H84        -2.5760    1.5840    1.0180 hc        1 MOL      0.046754
    176 H85        -1.6840    2.6800   -0.1010 hc        1 MOL      0.046754
    177 N15        -5.4160    0.7160   -2.8310 n         1 MOL     -0.067125
    178 C54        -6.0650    0.6220   -4.1620 c3        1 MOL     -0.346839
    179 H86        -6.5920   -0.3280   -4.2420 h1        1 MOL      0.126477
    180 H87        -6.7740    1.4420   -4.2800 h1        1 MOL      0.126477
    181 H88        -5.3050    0.6820   -4.9410 h1        1 MOL      0.126477
    182 H89        -5.5530   -0.0420   -2.1770 hn        1 MOL      0.156158
    183 Ca1         1.7470   -0.7970    1.4980 Ca        1 MOL      1.771633
    184 O25         0.0040   -0.2320    3.4580 oh        1 MOL     -0.934348
    185 H90        -0.7010   -0.3750    4.0840 ho        1 MOL      0.426847
    186 H91         0.3760    0.6080    3.7000 ho        1 MOL      0.426847
    187 O26         1.1890   -3.2420    2.3560 oh        1 MOL     -0.934348
    188 H92         1.9750   -3.7680    2.2390 ho        1 MOL      0.426847
    189 H93         0.8630   -3.4840    3.2270 ho        1 MOL      0.426847
@<TRIPOS>BOND
     1    1    2 1   
     2    1    4 1   
     3    1    5 1   
     4    1    6 1   
     5    2    3 2   
     6    2    7 1   
     7    7    8 1   
     8    7   15 1   
     9    8    9 1   
    10    8   11 1   
    11    8   16 1   
    12    9   10 2   
    13    9   19 1   
    14   11   12 1   
    15   11   17 1   
    16   11   18 1   
    17   12   13 1   
    18   12   14 1   
    19   19   20 1   
    20   19   28 1   
    21   20   21 1   
    22   20   23 1   
    23   20   29 1   
    24   21   22 2   
    25   21   41 1   
    26   23   24 1   
    27   23   30 1   
    28   23   31 1   
    29   24   25 1   
    30   24   32 1   
    31   24   33 1   
    32   25   26 1   
    33   25   34 1   
    34   25   35 1   
    35   26   27 1   
    36   26   36 1   
    37   26   37 1   
    38   27   38 1   
    39   27   39 1   
    40   27   40 1   
    41   41   42 1   
    42   41   49 1   
    43   42   43 1   
    44   42   45 1   
    45   42   50 1   
    46   43   44 2   
    47   43   53 1   
    48   45   46 1   
    49   45   51 1   
    50   45   52 1   
    51   46   47 1   
    52   46   48 1   
    53   53   54 1   
    54   53   57 1   
    55   54   55 1   
    56   54   58 1   
    57   54   59 1   
    58   55   56 2   
    59   55   60 1   
    60   60   61 1   
    61   60   68 1   
    62   61   62 1   
    63   61   64 1   
    64   61   69 1   
    65   62   63 2   
    66   62   72 1   
    67   64   65 1   
    68   64   70 1   
    69   64   71 1   
    70   65   66 1   
    71   65   67 1   
    72   72   73 1   
    73   72   76 1   
    74   73   74 1   
    75   73   77 1   
    76   73   78 1   
    77   74   75 2   
    78   74   79 1   
    79   79   80 1   
    80   79   86 1   
    81   80   81 1   
    82   80   83 1   
    83   80   87 1   
    84   81   82 2   
    85   81   93 1   
    86   83   84 1   
    87   83   85 1   
    88   83   88 1   
    89   84   90 1   
    90   84   91 1   
    91   84   92 1   
    92   85   89 1   
    93   93   94 1   
    94   93  101 1   
    95   94   95 1   
    96   94   97 1   
    97   94  102 1   
    98   95   96 2   
    99   95  112 1   
   100   97   98 1   
   101   97   99 1   
   102   97  103 1   
   103   98  100 1   
   104   98  104 1   
   105   98  105 1   
   106   99  106 1   
   107   99  107 1   
   108   99  108 1   
   109  100  109 1   
   110  100  110 1   
   111  100  111 1   
   112  112  113 1   
   113  112  119 1   
   114  113  114 1   
   115  113  116 1   
   116  113  120 1   
   117  114  115 2   
   118  114  126 1   
   119  116  117 1   
   120  116  118 1   
   121  116  121 1   
   122  117  123 1   
   123  117  124 1   
   124  117  125 1   
   125  118  122 1   
   126  126  127 1   
   127  126  133 1   
   128  127  128 1   
   129  127  130 1   
   130  127  134 1   
   131  128  129 2   
   132  128  140 1   
   133  130  131 1   
   134  130  132 1   
   135  130  135 1   
   136  131  137 1   
   137  131  138 1   
   138  131  139 1   
   139  132  136 1   
   140  140  141 1   
   141  140  149 1   
   142  141  142 1   
   143  141  144 1   
   144  141  150 1   
   145  142  143 2   
   146  142  162 1   
   147  144  145 1   
   148  144  151 1   
   149  144  152 1   
   150  145  146 1   
   151  145  153 1   
   152  145  154 1   
   153  146  147 1   
   154  146  155 1   
   155  146  156 1   
   156  147  148 1   
   157  147  157 1   
   158  147  158 1   
   159  148  159 1   
   160  148  160 1   
   161  148  161 1   
   162  162  163 1   
   163  162  171 1   
   164  163  164 1   
   165  163  166 1   
   166  163  172 1   
   167  164  165 2   
   168  164  177 1   
   169  166  167 1   
   170  166  173 1   
   171  166  174 1   
   172  167  168 1   
   173  167  175 1   
   174  167  176 1   
   175  168  169 1   
   176  168  170 1   
   177  177  178 1   
   178  177  182 1   
   179  178  179 1   
   180  178  180 1   
   181  178  181 1   
   182  184  185 1   
   183  184  186 1   
   184  187  188 1   
   185  187  189 1   
@<TRIPOS>SUBSTRUCTURE
     1 MOL         1 TEMP              0 ****  ****    0 ROOT
