@<TRIPOS>MOLECULE
MOL
  179   176     1     0     0
SMALL
resp


@<TRIPOS>ATOM
      1 C1          0.9820    3.9410    6.2870 c3        1 MOL     -0.395551
      2 C2          0.8720    3.3690    4.9180 c         1 MOL      0.698657
      3 O1          1.9180    3.0410    4.2790 o         1 MOL     -0.579781
      4 H1          1.5760    4.8540    6.2520 hc        1 MOL      0.104889
      5 H2         -0.0140    4.1710    6.6670 hc        1 MOL      0.104889
      6 H3          1.4650    3.2190    6.9460 hc        1 MOL      0.104889
      7 N1         -0.3900    3.2240    4.4020 n         1 MOL     -0.564429
      8 C3         -0.6380    2.7480    3.0540 c3        1 MOL      0.001848
      9 C4         -0.6540    3.9450    2.0490 c         1 MOL      0.606127
     10 O2         -1.2480    4.9680    2.3590 o         1 MOL     -0.525826
     11 C5         -2.0940    2.0700    3.1340 c3        1 MOL     -0.122959
     12 C6         -2.5430    1.2730    1.8520 c         1 MOL      0.770968
     13 O3         -1.6800    1.1310    0.9310 o         1 MOL     -0.722955
     14 O4         -3.7170    0.8210    1.9130 o         1 MOL     -0.722955
     15 H4         -1.1560    3.4860    5.0080 hn        1 MOL      0.327139
     16 H5          0.0950    2.0060    2.7170 h1        1 MOL      0.046314
     17 H6         -2.8330    2.8070    3.4340 hc        1 MOL      0.045843
     18 H7         -2.0890    1.2910    3.9040 hc        1 MOL      0.045843
     19 N2         -0.0850    3.7700    0.8530 n         1 MOL     -0.421356
     20 C7          0.3050    5.0090    0.0370 c3        1 MOL     -0.161840
     21 C8         -0.8830    5.4900   -0.7650 c         1 MOL      0.497306
     22 O5         -1.1610    6.6570   -0.7310 o         1 MOL     -0.528903
     23 C9          1.5770    4.6800   -0.7270 c3        1 MOL      0.167778
     24 C10         2.1760    5.9450   -1.4020 c3        1 MOL     -0.229196
     25 C11         3.4390    5.3900   -2.2750 c3        1 MOL      0.055844
     26 C12         4.4570    6.4800   -2.5520 c3        1 MOL     -0.011555
     27 N3          5.6710    5.9360   -3.2240 n4        1 MOL     -0.144305
     28 H8          0.4280    2.9160    0.7130 hn        1 MOL      0.242753
     29 H9          0.4200    5.7870    0.7890 h1        1 MOL      0.135029
     30 H10         1.3190    3.9240   -1.4720 hc        1 MOL      0.029969
     31 H11         2.3230    4.2310   -0.0820 hc        1 MOL      0.029969
     32 H12         2.4710    6.5240   -0.5280 hc        1 MOL      0.085298
     33 H13         1.3750    6.4230   -1.9650 hc        1 MOL      0.085298
     34 H14         3.0510    4.9540   -3.2000 hc        1 MOL      0.013016
     35 H15         3.9390    4.5990   -1.7300 hc        1 MOL      0.013016
     36 H16         4.8480    6.8080   -1.5830 hx        1 MOL      0.082609
     37 H17         4.0990    7.3350   -3.1230 hx        1 MOL      0.082609
     38 H18         5.4520    5.7450   -4.1920 hn        1 MOL      0.270328
     39 H19         6.4610    6.5690   -3.2350 hn        1 MOL      0.270328
     40 H20         5.9150    4.9950   -2.9510 hn        1 MOL      0.270328
     41 N4         -1.5720    4.5460   -1.4220 n         1 MOL     -0.311861
     42 C13        -2.8870    4.7310   -2.0640 c3        1 MOL      0.157245
     43 C14        -4.0860    4.5540   -1.1380 c         1 MOL      0.394901
     44 O6         -5.1510    4.9570   -1.4730 o         1 MOL     -0.528909
     45 C15        -2.9400    3.8400   -3.2990 c3        1 MOL     -0.371449
     46 C16        -2.5740    2.3830   -3.0780 c         1 MOL      0.879592
     47 O7         -2.3950    1.6960   -4.1160 o         1 MOL     -0.752504
     48 O8         -2.5940    1.8680   -1.9790 o         1 MOL     -0.752504
     49 H21        -1.1820    3.6090   -1.4330 hn        1 MOL      0.154158
     50 H22        -3.0170    5.7360   -2.4850 h1        1 MOL      0.059294
     51 H23        -2.2960    4.2490   -4.0730 hc        1 MOL      0.102401
     52 H24        -3.9820    3.8000   -3.6210 hc        1 MOL      0.102401
     53 N5         -3.9760    3.7260   -0.1030 n         1 MOL     -0.026496
     54 C17        -4.9780    3.4650    0.8930 c3        1 MOL     -0.277644
     55 C18        -5.9990    2.4390    0.4390 c         1 MOL      0.580364
     56 O9         -7.1780    2.5210    0.8370 o         1 MOL     -0.575032
     57 H25        -3.0580    3.3350    0.0500 hn        1 MOL      0.103175
     58 H26        -5.6360    4.3270    1.0240 h1        1 MOL      0.118162
     59 H27        -4.4760    3.1740    1.8180 h1        1 MOL      0.118162
     60 N6         -5.5650    1.4750   -0.3460 n         1 MOL     -0.242823
     61 C19        -6.4530    0.3620   -0.8420 c3        1 MOL      0.003112
     62 C20        -6.7870   -0.8050    0.1580 c         1 MOL      0.422450
     63 O10        -7.7560   -1.5780   -0.0480 o         1 MOL     -0.543369
     64 C21        -6.0740   -0.2400   -2.2020 c3        1 MOL     -0.227033
     65 C22        -4.7750   -1.1220   -2.2610 c         1 MOL      0.613330
     66 N7         -4.5940   -1.8630   -3.2950 n         1 MOL     -0.668183
     67 O11        -4.0130   -1.2310   -1.2820 o         1 MOL     -0.583839
     68 H28        -4.5720    1.2890   -0.4040 hn        1 MOL      0.118777
     69 H29        -7.4430    0.7680   -1.0230 h1        1 MOL      0.110690
     70 H30        -5.8990    0.6340   -2.8300 hc        1 MOL      0.090959
     71 H31        -6.9230   -0.8240   -2.5670 hc        1 MOL      0.090959
     72 H32        -5.2830   -1.7610   -4.0200 hn        1 MOL      0.329430
     73 H33        -3.9610   -2.6540   -3.3160 hn        1 MOL      0.329430
     74 N8         -6.1460   -0.8040    1.3040 n         1 MOL     -0.204273
     75 C23        -6.3580   -1.8130    2.4140 c3        1 MOL     -0.262294
     76 C24        -5.3250   -2.9420    2.5130 c         1 MOL      0.548516
     77 O12        -5.4360   -3.9010    3.3070 o         1 MOL     -0.581672
     78 H34        -5.4100   -0.1150    1.4450 hn        1 MOL      0.287312
     79 H35        -7.3350   -2.2700    2.2780 h1        1 MOL      0.135116
     80 H36        -6.1750   -1.1870    3.2970 h1        1 MOL      0.135116
     81 N9         -4.2600   -2.8360    1.7420 n         1 MOL     -0.208288
     82 C25        -3.0400   -3.6320    2.0030 c3        1 MOL      0.074618
     83 C26        -1.8230   -2.8700    1.5810 c         1 MOL      0.415460
     84 O13        -1.9080   -1.8140    0.8780 o         1 MOL     -0.571650
     85 C27        -3.1430   -4.9110    1.1650 c3        1 MOL     -0.169669
     86 C28        -3.5970   -4.8430   -0.2920 ca        1 MOL      0.215182
     87 C29        -2.6380   -4.6420   -1.2900 ca        1 MOL     -0.263625
     88 C30        -4.8650   -5.4080   -0.6520 ca        1 MOL     -0.263625
     89 C31        -3.0210   -4.6590   -2.6600 ca        1 MOL     -0.192431
     90 C32        -5.2390   -5.5670   -2.0440 ca        1 MOL     -0.192431
     91 C33        -4.2990   -5.1860   -3.0910 ca        1 MOL      0.242601
     92 O14        -4.6510   -5.2210   -4.3660 oh        1 MOL     -0.508129
     93 H37        -4.2000   -2.1020    1.0590 hn        1 MOL      0.209126
     94 H38        -2.9080   -3.9290    3.0400 h1        1 MOL      0.071870
     95 H39        -3.8020   -5.6180    1.6580 hc        1 MOL      0.048542
     96 H40        -2.1160   -5.2740    1.2570 hc        1 MOL      0.048542
     97 H41        -1.6380   -4.3620   -0.9960 ha        1 MOL      0.188318
     98 H42        -5.5990   -5.5990    0.1070 ha        1 MOL      0.188318
     99 H43        -2.2940   -4.5210   -3.4440 ha        1 MOL      0.130188
    100 H44        -6.2120   -5.9320   -2.3200 ha        1 MOL      0.130188
    101 H45        -5.4980   -5.6490   -4.5050 ho        1 MOL      0.422088
    102 N10        -0.6420   -3.3150    2.1090 n         1 MOL     -0.309563
    103 C34         0.6780   -2.7440    1.9240 c3        1 MOL      0.081973
    104 C35         1.5690   -3.7100    1.1200 c         1 MOL      0.318608
    105 O15         1.7110   -4.9110    1.3780 o         1 MOL     -0.525945
    106 C36         1.1620   -2.3850    3.3400 c3        1 MOL      0.106597
    107 C37         0.3160   -1.3880    4.0540 c3        1 MOL      0.061818
    108 C38         2.6860   -2.0530    3.3540 c3        1 MOL     -0.281738
    109 C39        -1.1060   -1.7680    4.6520 c3        1 MOL     -0.306960
    110 H46        -0.6560   -4.0880    2.7590 hn        1 MOL      0.276569
    111 H47         0.6940   -1.8170    1.3550 h1        1 MOL     -0.042131
    112 H48         1.1100   -3.2880    3.9530 hc        1 MOL     -0.001692
    113 H49         0.2330   -0.4760    3.4590 hc        1 MOL      0.034786
    114 H50         0.8880   -0.9330    4.8610 hc        1 MOL      0.034786
    115 H51         2.9700   -1.3850    2.5400 hc        1 MOL      0.063678
    116 H52         3.0520   -1.6580    4.3010 hc        1 MOL      0.063678
    117 H53         3.2960   -2.9450    3.1550 hc        1 MOL      0.063678
    118 H54        -1.2830   -1.0240    5.4330 hc        1 MOL      0.074763
    119 H55        -1.8760   -1.6240    3.9050 hc        1 MOL      0.074763
    120 H56        -1.0410   -2.7700    5.0780 hc        1 MOL      0.074763
    121 N11         2.3270   -3.1680    0.1750 n         1 MOL     -0.224443
    122 C40         3.4710   -3.7940   -0.5730 c3        1 MOL     -0.024387
    123 C41         4.8430   -3.5090    0.0560 c         1 MOL      0.600815
    124 O16         5.0030   -2.5030    0.7420 o         1 MOL     -0.464834
    125 C42         3.3420   -3.5560   -2.0490 c3        1 MOL      0.083811
    126 O17         3.8560   -2.3140   -2.5340 oh        1 MOL     -0.597371
    127 H57         2.1920   -2.1820   -0.0100 hn        1 MOL      0.349235
    128 H58         3.3180   -4.8680   -0.5360 h1        1 MOL      0.060633
    129 H59         2.3280   -3.6580   -2.4370 h1        1 MOL      0.037317
    130 H60         3.9150   -4.3540   -2.5150 h1        1 MOL      0.037317
    131 H61         3.0810   -1.8870   -2.9290 ho        1 MOL      0.413467
    132 N12         5.9240   -4.2280   -0.2650 n         1 MOL     -0.549748
    133 C43         7.2980   -3.8470    0.2090 c3        1 MOL      0.198179
    134 C44         7.6830   -2.4410   -0.2340 c         1 MOL      0.474102
    135 O18         8.3510   -1.7740    0.5000 o         1 MOL     -0.523835
    136 C45         8.2760   -4.8940   -0.2630 c3        1 MOL     -0.271239
    137 H62         5.7450   -5.1620   -0.6100 hn        1 MOL      0.310172
    138 H63         7.3310   -3.8050    1.2990 h1        1 MOL      0.075490
    139 H64         8.1960   -4.9580   -1.3400 hc        1 MOL      0.080357
    140 H65         9.2830   -4.4860   -0.1970 hc        1 MOL      0.080357
    141 H66         8.2040   -5.8570    0.2380 hc        1 MOL      0.080357
    142 N13         7.3900   -2.0610   -1.4820 n         1 MOL     -0.290534
    143 C46         7.7920   -0.7920   -2.0910 c3        1 MOL      0.003090
    144 C47         6.8830    0.3350   -1.5060 c         1 MOL      0.426801
    145 O19         7.2440    1.4560   -1.7730 o         1 MOL     -0.538826
    146 C48         7.6360   -0.8480   -3.5790 c3        1 MOL     -0.285744
    147 H67         6.9520   -2.7450   -2.0910 hn        1 MOL      0.266766
    148 H68         8.8520   -0.7350   -1.8530 h1        1 MOL      0.125194
    149 H69         6.6240   -1.0360   -3.9480 hc        1 MOL      0.089409
    150 H70         7.9340    0.1350   -3.9270 hc        1 MOL      0.089409
    151 H71         8.1650   -1.7080   -4.0110 hc        1 MOL      0.089409
    152 N14         5.8280    0.1100   -0.6730 n         1 MOL     -0.062541
    153 C49         5.1570    1.1460    0.1730 c3        1 MOL     -0.115246
    154 C50         5.7250    1.1470    1.5990 c         1 MOL      0.442231
    155 O20         5.7540    2.2170    2.2060 o         1 MOL     -0.540481
    156 C51         3.6300    0.9590    0.2320 c3        1 MOL      0.176497
    157 C52         2.9690    1.1560   -1.1410 c3        1 MOL     -0.087965
    158 C53         1.5330    0.5110   -1.3090 c         1 MOL      0.546659
    159 O21         1.2780   -0.6350   -0.8740 o         1 MOL     -0.640597
    160 O22         0.5920    1.1570   -1.8870 o         1 MOL     -0.640597
    161 H72         5.6280   -0.8540   -0.4590 hn        1 MOL     -0.012175
    162 H73         5.2690    2.1480   -0.2440 h1        1 MOL      0.076427
    163 H74         3.1500    1.5730    0.9880 hc        1 MOL     -0.008910
    164 H75         3.4100   -0.0790    0.4620 hc        1 MOL     -0.008910
    165 H76         3.6420    0.7150   -1.8690 hc        1 MOL     -0.013119
    166 H77         2.7820    2.2210   -1.2570 hc        1 MOL     -0.013119
    167 N15         6.2620    0.0390    2.0280 n         1 MOL     -0.103891
    168 C54         7.0670   -0.0720    3.2920 c3        1 MOL     -0.259407
    169 H78         7.5780    0.8720    3.4800 h1        1 MOL      0.112679
    170 H79         6.4040   -0.2980    4.1270 h1        1 MOL      0.112679
    171 H80         7.8030   -0.8690    3.1860 h1        1 MOL      0.112679
    172 H81         6.3270   -0.7980    1.4820 hn        1 MOL      0.146954
    173 Ca1        -1.4200   -0.2620   -1.1550 Ca        1 MOL      1.724096
    174 O23        -0.3300   -2.5360   -1.8640 oh        1 MOL     -0.880017
    175 H82        -0.4670   -3.4300   -2.1610 ho        1 MOL      0.401325
    176 H83         0.5840   -2.3390   -2.0860 ho        1 MOL      0.401325
    177 O24        -1.4060   -0.6410   -4.0560 oh        1 MOL     -0.880017
    178 H84        -1.8030   -1.1710   -4.7470 ho        1 MOL      0.401325
    179 H85        -1.7190    0.2480   -4.2270 ho        1 MOL      0.401325
@<TRIPOS>BOND
     1    1    2 1   
     2    1    4 1   
     3    1    5 1   
     4    1    6 1   
     5    2    3 2   
     6    2    7 1   
     7    7    8 1   
     8    7   15 1   
     9    8    9 1   
    10    8   11 1   
    11    8   16 1   
    12    9   10 2   
    13    9   19 1   
    14   11   12 1   
    15   11   17 1   
    16   11   18 1   
    17   12   13 1   
    18   12   14 1   
    19   19   20 1   
    20   19   28 1   
    21   20   21 1   
    22   20   23 1   
    23   20   29 1   
    24   21   22 2   
    25   21   41 1   
    26   23   24 1   
    27   23   30 1   
    28   23   31 1   
    29   24   25 1   
    30   24   32 1   
    31   24   33 1   
    32   25   26 1   
    33   25   34 1   
    34   25   35 1   
    35   26   27 1   
    36   26   36 1   
    37   26   37 1   
    38   27   38 1   
    39   27   39 1   
    40   27   40 1   
    41   41   42 1   
    42   41   49 1   
    43   42   43 1   
    44   42   45 1   
    45   42   50 1   
    46   43   44 2   
    47   43   53 1   
    48   45   46 1   
    49   45   51 1   
    50   45   52 1   
    51   46   47 1   
    52   46   48 1   
    53   53   54 1   
    54   53   57 1   
    55   54   55 1   
    56   54   58 1   
    57   54   59 1   
    58   55   56 2   
    59   55   60 1   
    60   60   61 1   
    61   60   68 1   
    62   61   62 1   
    63   61   64 1   
    64   61   69 1   
    65   62   63 2   
    66   62   74 1   
    67   64   65 1   
    68   64   70 1   
    69   64   71 1   
    70   65   66 1   
    71   65   67 2   
    72   66   72 1   
    73   66   73 1   
    74   74   75 1   
    75   74   78 1   
    76   75   76 1   
    77   75   79 1   
    78   75   80 1   
    79   76   77 2   
    80   76   81 1   
    81   81   82 1   
    82   81   93 1   
    83   82   83 1   
    84   82   85 1   
    85   82   94 1   
    86   83   84 2   
    87   83  102 1   
    88   85   86 1   
    89   85   95 1   
    90   85   96 1   
    91   86   87 ar  
    92   86   88 ar  
    93   87   89 ar  
    94   87   97 1   
    95   88   90 ar  
    96   88   98 1   
    97   89   91 ar  
    98   89   99 1   
    99   90   91 ar  
   100   90  100 1   
   101   91   92 1   
   102   92  101 1   
   103  102  103 1   
   104  102  110 1   
   105  103  104 1   
   106  103  106 1   
   107  103  111 1   
   108  104  105 2   
   109  104  121 1   
   110  106  107 1   
   111  106  108 1   
   112  106  112 1   
   113  107  109 1   
   114  107  113 1   
   115  107  114 1   
   116  108  115 1   
   117  108  116 1   
   118  108  117 1   
   119  109  118 1   
   120  109  119 1   
   121  109  120 1   
   122  121  122 1   
   123  121  127 1   
   124  122  123 1   
   125  122  125 1   
   126  122  128 1   
   127  123  124 2   
   128  123  132 1   
   129  125  126 1   
   130  125  129 1   
   131  125  130 1   
   132  126  131 1   
   133  132  133 1   
   134  132  137 1   
   135  133  134 1   
   136  133  136 1   
   137  133  138 1   
   138  134  135 2   
   139  134  142 1   
   140  136  139 1   
   141  136  140 1   
   142  136  141 1   
   143  142  143 1   
   144  142  147 1   
   145  143  144 1   
   146  143  146 1   
   147  143  148 1   
   148  144  145 2   
   149  144  152 1   
   150  146  149 1   
   151  146  150 1   
   152  146  151 1   
   153  152  153 1   
   154  152  161 1   
   155  153  154 1   
   156  153  156 1   
   157  153  162 1   
   158  154  155 2   
   159  154  167 1   
   160  156  157 1   
   161  156  163 1   
   162  156  164 1   
   163  157  158 1   
   164  157  165 1   
   165  157  166 1   
   166  158  159 1   
   167  158  160 1   
   168  167  168 1   
   169  167  172 1   
   170  168  169 1   
   171  168  170 1   
   172  168  171 1   
   173  174  175 1   
   174  174  176 1   
   175  177  178 1   
   176  177  179 1   
@<TRIPOS>SUBSTRUCTURE
     1 MOL         1 TEMP              0 ****  ****    0 ROOT
