@<TRIPOS>MOLECULE
MOL
  175   173     1     0     0
SMALL
resp


@<TRIPOS>ATOM
      1 C1         -0.0390   -3.6730    5.6640 c3        1 MOL     -0.466661
      2 C2          0.4270   -3.5050    4.1850 c         1 MOL      0.756125
      3 O1         -0.2700   -3.8790    3.2630 o         1 MOL     -0.583780
      4 H1         -0.7410   -4.5040    5.7310 hc        1 MOL      0.117298
      5 H2          0.8250   -3.8770    6.2970 hc        1 MOL      0.117298
      6 H3         -0.5280   -2.7570    5.9980 hc        1 MOL      0.117298
      7 N1          1.6270   -2.9340    3.9310 n         1 MOL     -0.672836
      8 C3          2.2450   -2.4760    2.6310 c3        1 MOL      0.218138
      9 C4          2.8450   -3.7000    1.8580 c         1 MOL      0.565261
     10 O2          3.8000   -4.3950    2.2330 o         1 MOL     -0.598668
     11 C5          3.2160   -1.2210    2.8960 c3        1 MOL     -0.252364
     12 C6          3.9480   -0.6960    1.6700 c         1 MOL      0.692215
     13 O3          3.4870   -0.7350    0.5330 o         1 MOL     -0.694027
     14 O4          5.0930   -0.1710    1.9520 o         1 MOL     -0.694027
     15 H4          1.9890   -2.5620    4.7970 hn        1 MOL      0.302992
     16 H5          1.4920   -2.0630    1.9630 h1        1 MOL      0.062307
     17 H6          3.9950   -1.5190    3.5960 hc        1 MOL      0.070375
     18 H7          2.6700   -0.4090    3.3780 hc        1 MOL      0.070375
     19 N2          2.2270   -3.9860    0.6640 n         1 MOL     -0.322954
     20 C7          2.4610   -5.2250   -0.0430 c3        1 MOL      0.140218
     21 C8          3.5570   -5.1500   -1.1500 c         1 MOL      0.358993
     22 O5          4.1120   -6.1710   -1.5340 o         1 MOL     -0.546862
     23 C9          1.0780   -5.5990   -0.7000 c3        1 MOL     -0.448639
     24 H8          1.5510   -3.3230    0.3010 hn        1 MOL      0.237407
     25 H9          2.7130   -5.9590    0.7160 h1        1 MOL      0.073603
     26 H10         1.2880   -6.5160   -1.2440 hc        1 MOL      0.122750
     27 H11         0.3500   -5.7740    0.0910 hc        1 MOL      0.122750
     28 H12         0.7960   -4.7890   -1.3720 hc        1 MOL      0.122750
     29 N3          3.9280   -3.9180   -1.6340 n         1 MOL     -0.133328
     30 C10         5.0890   -3.6450   -2.4720 c3        1 MOL      0.027859
     31 C11         6.2870   -3.1530   -1.6730 c         1 MOL      0.419491
     32 O6          7.4340   -3.0870   -2.1500 o         1 MOL     -0.566745
     33 C12         4.8150   -2.6530   -3.6050 c3        1 MOL     -0.209863
     34 C13         3.8230   -1.5010   -3.3880 c         1 MOL      0.779591
     35 O7          3.8200   -0.6320   -4.2490 o         1 MOL     -0.730427
     36 O8          3.2210   -1.3400   -2.3220 o         1 MOL     -0.730427
     37 H13         3.3310   -3.1570   -1.3410 hn        1 MOL      0.161913
     38 H14         5.4380   -4.5530   -2.9740 h1        1 MOL      0.083251
     39 H15         4.2290   -3.2420   -4.3120 hc        1 MOL      0.057238
     40 H16         5.6910   -2.2650   -4.1310 hc        1 MOL      0.057238
     41 N4          6.1580   -2.6500   -0.4700 n         1 MOL     -0.280762
     42 C14         7.2200   -1.9520    0.2590 c3        1 MOL      0.045728
     43 C15         7.4590   -0.4970   -0.0500 c         1 MOL      0.515355
     44 O9          8.5770    0.0140    0.1380 o         1 MOL     -0.613064
     45 H17         5.2580   -2.7210   -0.0180 hn        1 MOL      0.191629
     46 H18         8.1900   -2.3940   -0.0060 h1        1 MOL      0.050781
     47 H19         7.2650   -2.0620    1.3470 h1        1 MOL      0.050781
     48 N5          6.5190    0.1910   -0.6900 n         1 MOL     -0.140745
     49 C16         6.7090    1.5860   -1.2600 c3        1 MOL     -0.278426
     50 C17         6.5920    2.7350   -0.2770 c         1 MOL      0.516686
     51 O10         6.8010    3.8750   -0.6380 o         1 MOL     -0.564275
     52 C18         5.8040    1.7810   -2.5010 c3        1 MOL     -0.094047
     53 C19         4.5440    2.5440   -2.2140 c         1 MOL      0.529366
     54 N6          4.3580    3.7710   -2.6240 n         1 MOL     -0.615337
     55 O11         3.6350    2.1440   -1.4760 o         1 MOL     -0.572044
     56 H20         5.5650   -0.1450   -0.6690 hn        1 MOL      0.154385
     57 H21         7.7380    1.6490   -1.6090 h1        1 MOL      0.179263
     58 H22         5.3470    0.8750   -2.8890 hc        1 MOL      0.086298
     59 H23         6.2740    2.2800   -3.3530 hc        1 MOL      0.086298
     60 H24         5.0480    4.2760   -3.1660 hn        1 MOL      0.319462
     61 H25         3.4930    4.2340   -2.3730 hn        1 MOL      0.319462
     62 N7          6.2140    2.4780    0.9770 n         1 MOL     -0.154376
     63 C20         6.0940    3.4380    2.0580 c3        1 MOL     -0.260626
     64 C21         4.6930    4.1050    2.1590 c         1 MOL      0.538934
     65 O12         4.5490    4.8580    3.1400 o         1 MOL     -0.589340
     66 H26         6.0050    1.5060    1.1630 hn        1 MOL      0.222774
     67 H27         6.8540    4.2090    1.9870 h1        1 MOL      0.127527
     68 H28         6.1650    2.8540    2.9730 h1        1 MOL      0.127527
     69 N8          3.7050    3.9040    1.2620 n         1 MOL     -0.103969
     70 C22         2.4020    4.5070    1.3060 c3        1 MOL     -0.162907
     71 C23         1.3360    3.4750    1.2100 c         1 MOL      0.613904
     72 O13         1.5480    2.3810    0.6800 o         1 MOL     -0.624033
     73 C24         2.1620    5.5280    0.2270 c3        1 MOL      0.632001
     74 C25         3.1460    6.6930    0.4110 c3        1 MOL     -0.379678
     75 O14         2.2270    4.8890   -1.0580 oh        1 MOL     -0.699796
     76 H29         3.9170    3.2930    0.4880 hn        1 MOL      0.097001
     77 H30         2.2670    5.0420    2.2450 h1        1 MOL      0.043101
     78 H31         1.1300    5.8450    0.3490 h1        1 MOL     -0.103026
     79 H32         1.8690    4.0000   -1.0350 ho        1 MOL      0.450650
     80 H33         2.8190    7.3080    1.2590 hc        1 MOL      0.086133
     81 H34         4.1260    6.2310    0.4150 hc        1 MOL      0.086133
     82 H35         3.0340    7.3410   -0.4550 hc        1 MOL      0.086133
     83 N9          0.1610    3.6780    1.7580 n         1 MOL     -0.530666
     84 C26        -0.9180    2.6800    1.7930 c3        1 MOL     -0.050737
     85 C27        -1.8300    2.7390    0.5540 c         1 MOL      0.596999
     86 O15        -2.4270    3.8240    0.3790 o         1 MOL     -0.598388
     87 C28        -1.7340    2.6630    3.1380 c3        1 MOL      0.232309
     88 C29        -1.0170    2.7680    4.4980 c3        1 MOL     -0.042720
     89 C30        -2.6130    1.4220    3.1710 c3        1 MOL     -0.379315
     90 C31        -1.8950    2.5870    5.7690 c3        1 MOL     -0.153932
     91 H36        -0.0050    4.5480    2.2480 hn        1 MOL      0.301969
     92 H37        -0.3690    1.7310    1.7730 h1        1 MOL      0.125401
     93 H38        -2.4720    3.4540    3.0730 hc        1 MOL     -0.046744
     94 H39        -0.5360    3.7490    4.4690 hc        1 MOL      0.020514
     95 H40        -0.2960    1.9580    4.6010 hc        1 MOL      0.020514
     96 H41        -1.9830    0.5420    3.2970 hc        1 MOL      0.069905
     97 H42        -3.3840    1.4820    3.9400 hc        1 MOL      0.069905
     98 H43        -3.0970    1.1880    2.2330 hc        1 MOL      0.069905
     99 H44        -2.0530    1.5250    5.9380 hc        1 MOL      0.042291
    100 H45        -1.5180    3.1490    6.6160 hc        1 MOL      0.042291
    101 H46        -2.8860    3.0330    5.6460 hc        1 MOL      0.042291
    102 N10        -2.0490    1.6210   -0.1640 n         1 MOL     -0.017740
    103 C32        -3.0410    1.5400   -1.1810 c3        1 MOL      0.039977
    104 C33        -4.4740    1.2130   -0.6710 c         1 MOL      0.242754
    105 O16        -4.7270    0.7040    0.4060 o         1 MOL     -0.253617
    106 C34        -2.6540    0.5720   -2.3490 c3        1 MOL     -0.271095
    107 C35        -1.3100    0.7140   -2.9950 c         1 MOL      0.793713
    108 O17        -1.0950    1.5890   -3.7940 o         1 MOL     -0.726962
    109 O18        -0.3870   -0.0890   -2.7140 o         1 MOL     -0.726962
    110 H47        -1.5080    0.7940    0.0680 hn        1 MOL     -0.001223
    111 H48        -3.1090    2.5210   -1.6510 h1        1 MOL      0.042181
    112 H49        -3.3980    0.7370   -3.1200 hc        1 MOL      0.066567
    113 H50        -2.7280   -0.4590   -1.9850 hc        1 MOL      0.066567
    114 N11        -5.5120    1.3210   -1.4970 n         1 MOL     -0.385430
    115 C36        -6.8610    0.8770   -1.2360 c3        1 MOL      0.201350
    116 C37        -6.9000   -0.6240   -0.7740 c         1 MOL      0.358211
    117 O19        -7.5350   -0.9170    0.2270 o         1 MOL     -0.519021
    118 C38        -7.7910    1.3380   -2.4190 c3        1 MOL     -0.147244
    119 C39        -9.2570    1.6240   -2.0940 ca        1 MOL      0.068763
    120 C40       -10.1630    0.5760   -1.8600 ca        1 MOL     -0.125039
    121 C41        -9.6840    2.9180   -1.8850 ca        1 MOL     -0.125039
    122 C42       -11.4980    0.8560   -1.3640 ca        1 MOL     -0.175898
    123 C43       -10.9900    3.2540   -1.5000 ca        1 MOL     -0.175898
    124 C44       -11.8780    2.1800   -1.2030 ca        1 MOL     -0.048013
    125 H51        -5.4510    1.7060   -2.4280 hn        1 MOL      0.272155
    126 H52        -7.2250    1.4010   -0.3390 h1        1 MOL      0.048378
    127 H53        -7.8160    0.6000   -3.2230 hc        1 MOL      0.038714
    128 H54        -7.4290    2.3120   -2.7390 hc        1 MOL      0.038714
    129 H55        -9.9340   -0.4790   -1.9670 ha        1 MOL      0.120131
    130 H56        -8.9820    3.7240   -2.0090 ha        1 MOL      0.120131
    131 H57       -12.1930    0.0590   -1.1580 ha        1 MOL      0.130316
    132 H58       -11.1580    4.3010   -1.2930 ha        1 MOL      0.130316
    133 H59       -12.8450    2.4600   -0.8150 ha        1 MOL      0.083028
    134 N12        -6.2240   -1.5680   -1.4530 n         1 MOL     -0.042941
    135 C45        -6.2270   -2.9730   -1.0500 c3        1 MOL     -0.038272
    136 C46        -5.4230   -3.2380    0.2040 c         1 MOL      0.346663
    137 O20        -5.7290   -4.1460    0.9650 o         1 MOL     -0.512899
    138 C47        -5.6880   -3.8030   -2.2030 c3        1 MOL     -0.053679
    139 C48        -4.8740   -2.7580   -2.9560 c3        1 MOL     -0.013038
    140 C49        -5.6900   -1.4710   -2.8080 c3        1 MOL     -0.126255
    141 H60        -7.2710   -3.1760   -0.7910 h1        1 MOL      0.081329
    142 H61        -5.2240   -4.7480   -1.9400 hc        1 MOL      0.041394
    143 H62        -6.5610   -4.0540   -2.8030 hc        1 MOL      0.041394
    144 H63        -3.8850   -2.6930   -2.4760 hc        1 MOL      0.027258
    145 H64        -4.8210   -2.9820   -4.0210 hc        1 MOL      0.027258
    146 H65        -5.0920   -0.6140   -3.1290 h1        1 MOL      0.058587
    147 H66        -6.5610   -1.5430   -3.4650 h1        1 MOL      0.058587
    148 N13        -4.5730   -2.2620    0.5270 n         1 MOL     -0.158774
    149 C50        -3.8150   -2.2730    1.7890 c3        1 MOL     -0.090951
    150 C51        -4.6030   -1.6430    2.9570 c         1 MOL      0.426065
    151 O21        -4.4670   -2.2170    4.0370 o         1 MOL     -0.563885
    152 C52        -2.4470   -1.5850    1.6030 c3        1 MOL     -0.041000
    153 C53        -1.6030   -2.2100    0.5090 c3        1 MOL     -0.160865
    154 C54        -0.3340   -1.4480    0.2500 c         1 MOL      0.668928
    155 O22         0.4550   -2.0130   -0.4910 o         1 MOL     -0.721811
    156 O23        -0.0240   -0.3370    0.6480 o         1 MOL     -0.721811
    157 H67        -4.4650   -1.5170   -0.1410 hn        1 MOL      0.260529
    158 H68        -3.6020   -3.2960    2.1050 h1        1 MOL      0.118925
    159 H69        -1.9600   -1.6190    2.5770 hc        1 MOL      0.089413
    160 H70        -2.4860   -0.5480    1.2920 hc        1 MOL      0.089413
    161 H71        -2.1520   -2.4130   -0.4160 hc        1 MOL      0.060581
    162 H72        -1.3990   -3.1830    0.9520 hc        1 MOL      0.060581
    163 N14        -5.4280   -0.6500    2.7230 n         1 MOL      0.005201
    164 C55        -6.4640   -0.1580    3.6430 c3        1 MOL     -0.316914
    165 H73        -7.2280   -0.9240    3.7710 h1        1 MOL      0.105252
    166 H74        -6.0140    0.0720    4.6090 h1        1 MOL      0.105252
    167 H75        -6.9190    0.7430    3.2300 h1        1 MOL      0.105252
    168 H76        -5.3440   -0.1500    1.8460 hn        1 MOL      0.052891
    169 Ca1         1.7340    0.2790   -1.0470 Ca        1 MOL      1.730825
    170 O24         0.9290    2.6210   -2.1090 oh        1 MOL     -0.914560
    171 H77         1.7300    2.4390   -2.5930 ho        1 MOL      0.428018
    172 H78         0.2290    2.5500   -2.7680 ho        1 MOL      0.428018
    173 O25         2.1890    1.2720   -4.0170 oh        1 MOL     -0.914560
    174 H79         1.5120    1.2690   -4.7010 ho        1 MOL      0.428018
    175 H80         2.7960    0.5890   -4.2740 ho        1 MOL      0.428018
@<TRIPOS>BOND
     1    1    2 1   
     2    1    4 1   
     3    1    5 1   
     4    1    6 1   
     5    2    3 2   
     6    2    7 1   
     7    7    8 1   
     8    7   15 1   
     9    8    9 1   
    10    8   11 1   
    11    8   16 1   
    12    9   10 2   
    13    9   19 1   
    14   11   12 1   
    15   11   17 1   
    16   11   18 1   
    17   12   13 1   
    18   12   14 1   
    19   19   20 1   
    20   19   24 1   
    21   20   21 1   
    22   20   23 1   
    23   20   25 1   
    24   21   22 2   
    25   21   29 1   
    26   23   26 1   
    27   23   27 1   
    28   23   28 1   
    29   29   30 1   
    30   29   37 1   
    31   30   31 1   
    32   30   33 1   
    33   30   38 1   
    34   31   32 2   
    35   31   41 1   
    36   33   34 1   
    37   33   39 1   
    38   33   40 1   
    39   34   35 1   
    40   34   36 1   
    41   41   42 1   
    42   41   45 1   
    43   42   43 1   
    44   42   46 1   
    45   42   47 1   
    46   43   44 2   
    47   43   48 1   
    48   48   49 1   
    49   48   56 1   
    50   49   50 1   
    51   49   52 1   
    52   49   57 1   
    53   50   51 2   
    54   50   62 1   
    55   52   53 1   
    56   52   58 1   
    57   52   59 1   
    58   53   54 1   
    59   53   55 2   
    60   54   60 1   
    61   54   61 1   
    62   62   63 1   
    63   62   66 1   
    64   63   64 1   
    65   63   67 1   
    66   63   68 1   
    67   64   65 2   
    68   64   69 1   
    69   69   70 1   
    70   69   76 1   
    71   70   71 1   
    72   70   73 1   
    73   70   77 1   
    74   71   72 2   
    75   71   83 1   
    76   73   74 1   
    77   73   75 1   
    78   73   78 1   
    79   74   80 1   
    80   74   81 1   
    81   74   82 1   
    82   75   79 1   
    83   83   84 1   
    84   83   91 1   
    85   84   85 1   
    86   84   87 1   
    87   84   92 1   
    88   85   86 2   
    89   85  102 1   
    90   87   88 1   
    91   87   89 1   
    92   87   93 1   
    93   88   90 1   
    94   88   94 1   
    95   88   95 1   
    96   89   96 1   
    97   89   97 1   
    98   89   98 1   
    99   90   99 1   
   100   90  100 1   
   101   90  101 1   
   102  102  103 1   
   103  102  110 1   
   104  103  104 1   
   105  103  106 1   
   106  103  111 1   
   107  104  105 2   
   108  104  114 1   
   109  106  107 1   
   110  106  112 1   
   111  106  113 1   
   112  107  108 1   
   113  107  109 1   
   114  114  115 1   
   115  114  125 1   
   116  115  116 1   
   117  115  118 1   
   118  115  126 1   
   119  116  117 2   
   120  116  134 1   
   121  118  119 1   
   122  118  127 1   
   123  118  128 1   
   124  119  120 ar  
   125  119  121 ar  
   126  120  122 ar  
   127  120  129 1   
   128  121  123 ar  
   129  121  130 1   
   130  122  124 ar  
   131  122  131 1   
   132  123  124 ar  
   133  123  132 1   
   134  124  133 1   
   135  134  135 1   
   136  134  140 1   
   137  135  136 1   
   138  135  138 1   
   139  135  141 1   
   140  136  137 2   
   141  136  148 1   
   142  138  139 1   
   143  138  142 1   
   144  138  143 1   
   145  139  140 1   
   146  139  144 1   
   147  139  145 1   
   148  140  146 1   
   149  140  147 1   
   150  148  149 1   
   151  148  157 1   
   152  149  150 1   
   153  149  152 1   
   154  149  158 1   
   155  150  151 2   
   156  150  163 1   
   157  152  153 1   
   158  152  159 1   
   159  152  160 1   
   160  153  154 1   
   161  153  161 1   
   162  153  162 1   
   163  154  155 1   
   164  154  156 1   
   165  163  164 1   
   166  163  168 1   
   167  164  165 1   
   168  164  166 1   
   169  164  167 1   
   170  170  171 1   
   171  170  172 1   
   172  173  174 1   
   173  173  175 1   
@<TRIPOS>SUBSTRUCTURE
     1 MOL         1 TEMP              0 ****  ****    0 ROOT
