@<TRIPOS>MOLECULE
MOL
  182   178     1     0     0
SMALL
resp


@<TRIPOS>ATOM
      1 C1          1.7200    3.3110    5.6350 c3        1 MOL     -0.366362
      2 C2          1.3270    2.7980    4.2340 c         1 MOL      0.767158
      3 O1          2.1010    2.8030    3.2810 o         1 MOL     -0.625634
      4 H1          0.8180    3.4950    6.2190 hc        1 MOL      0.091121
      5 H2          2.3320    2.5620    6.1380 hc        1 MOL      0.091121
      6 H3          2.2850    4.2380    5.5370 hc        1 MOL      0.091121
      7 N1          0.0400    2.5640    4.0780 n         1 MOL     -0.631038
      8 C3         -0.6140    2.3710    2.7620 c3        1 MOL      0.038151
      9 C4         -0.7450    3.7050    2.0140 c         1 MOL      0.691223
     10 O2         -1.5990    4.5100    2.4090 o         1 MOL     -0.591080
     11 C5         -1.8650    1.6050    2.8950 c3        1 MOL     -0.023490
     12 C6         -2.5770    1.3140    1.5800 c         1 MOL      0.719726
     13 O3         -2.0140    1.5420    0.5380 o         1 MOL     -0.774697
     14 O4         -3.7260    0.8180    1.6000 o         1 MOL     -0.774697
     15 H4         -0.6150    2.5890    4.8480 hn        1 MOL      0.332662
     16 H5          0.0050    1.6600    2.2160 h1        1 MOL      0.033171
     17 H6         -2.5680    2.1000    3.5620 hc        1 MOL      0.019263
     18 H7         -1.6260    0.7040    3.4700 hc        1 MOL      0.019263
     19 N2          0.0180    3.9790    0.9610 n         1 MOL     -0.540780
     20 C7          0.0920    5.3080    0.3130 c3        1 MOL     -0.003279
     21 C8         -1.1400    5.6150   -0.6140 c         1 MOL      0.405569
     22 O5         -1.4170    6.8210   -0.8290 o         1 MOL     -0.542057
     23 C9          1.5140    5.4320   -0.3290 c3        1 MOL      0.070588
     24 C10         1.7770    6.6700   -1.2230 c3        1 MOL     -0.182584
     25 C11         1.7340    8.0400   -0.5040 c3        1 MOL     -0.016241
     26 C12         2.8380    8.2580    0.4960 c3        1 MOL      0.033037
     27 N3          2.5450    9.5470    1.2300 n4        1 MOL     -0.357539
     28 H8          0.7570    3.4090    0.5690 hn        1 MOL      0.357867
     29 H9         -0.0560    5.9330    1.1910 h1        1 MOL      0.090126
     30 H10         1.6210    4.6130   -1.0450 hc        1 MOL      0.039478
     31 H11         2.3000    5.2260    0.3970 hc        1 MOL      0.039478
     32 H12         1.0840    6.6370   -2.0710 hc        1 MOL      0.081889
     33 H13         2.7350    6.4590   -1.7060 hc        1 MOL      0.081889
     34 H14         0.7620    8.1270   -0.0160 hc        1 MOL      0.034012
     35 H15         1.6990    8.8390   -1.2540 hc        1 MOL      0.034012
     36 H16         3.7700    8.1680   -0.0530 hx        1 MOL      0.077526
     37 H17         2.7130    7.4160    1.1780 hx        1 MOL      0.077526
     38 H18         3.2660    9.9100    1.8460 hn        1 MOL      0.327712
     39 H19         2.4230   10.3280    0.6050 hn        1 MOL      0.327712
     40 H20         1.7570    9.4180    1.8480 hn        1 MOL      0.327712
     41 N4         -1.8540    4.5620   -1.1710 n         1 MOL     -0.121693
     42 C13        -3.0900    4.8760   -1.9520 c3        1 MOL      0.022915
     43 C14        -4.3740    4.4290   -1.2940 c         1 MOL      0.397858
     44 O6         -5.4660    4.7880   -1.8690 o         1 MOL     -0.525642
     45 C15        -3.0090    4.3490   -3.4110 c3        1 MOL     -0.217700
     46 C16        -2.9240    2.8140   -3.5090 c         1 MOL      0.813189
     47 O7         -2.6010    2.1270   -2.5160 o         1 MOL     -0.715486
     48 O8         -3.0680    2.2870   -4.6480 o         1 MOL     -0.715486
     49 H21        -1.6430    3.5980   -0.9650 hn        1 MOL      0.044028
     50 H22        -3.1300    5.9620   -2.0610 h1        1 MOL      0.105757
     51 H23        -2.0350    4.7210   -3.7500 hc        1 MOL      0.063323
     52 H24        -3.7820    4.7500   -4.0730 hc        1 MOL      0.063323
     53 N5         -4.3430    3.7240   -0.1740 n         1 MOL     -0.244285
     54 C17        -5.5160    3.3800    0.6790 c3        1 MOL     -0.158455
     55 C18        -6.3250    2.1740    0.0900 c         1 MOL      0.481008
     56 O9         -7.5280    2.2820    0.2270 o         1 MOL     -0.533029
     57 H25        -3.5200    3.1380   -0.0520 hn        1 MOL      0.225474
     58 H26        -6.1040    4.2950    0.8010 h1        1 MOL      0.122187
     59 H27        -5.1150    3.1170    1.6530 h1        1 MOL      0.122187
     60 N6         -5.7090    1.1750   -0.5880 n         1 MOL     -0.146980
     61 C19        -6.3780   -0.0580   -1.0010 c3        1 MOL     -0.109776
     62 C20        -6.5900   -1.1270    0.0690 c         1 MOL      0.344090
     63 O10        -7.0280   -2.2430   -0.2690 o         1 MOL     -0.452433
     64 C21        -5.6720   -0.5160   -2.2920 c3        1 MOL     -0.035829
     65 C22        -4.4010   -1.3160   -2.0990 c         1 MOL      0.644203
     66 N7         -4.2690   -2.4110   -2.8290 n         1 MOL     -0.905182
     67 O11        -3.4920   -1.0400   -1.3760 o         1 MOL     -0.630163
     68 H28        -4.7700    1.3170   -0.9300 hn        1 MOL      0.164026
     69 H29        -7.3800    0.2260   -1.3180 h1        1 MOL      0.127372
     70 H30        -5.4350    0.3410   -2.9230 hc        1 MOL      0.045077
     71 H31        -6.3960   -1.1800   -2.7630 hc        1 MOL      0.045077
     72 H32        -5.0940   -2.8390   -3.2210 hn        1 MOL      0.400513
     73 H33        -3.4350   -2.9790   -2.8370 hn        1 MOL      0.400513
     74 N8         -6.0330   -0.9380    1.2600 n         1 MOL     -0.189997
     75 C23        -5.8860   -1.8910    2.3140 c3        1 MOL     -0.215783
     76 C24        -4.7550   -2.8540    2.3560 c         1 MOL      0.739704
     77 O12        -4.8320   -3.8530    3.0350 o         1 MOL     -0.571631
     78 H34        -5.5220   -0.0730    1.3880 hn        1 MOL      0.252291
     79 H35        -6.7860   -2.4920    2.3560 h1        1 MOL      0.106203
     80 H36        -5.8880   -1.4230    3.3010 h1        1 MOL      0.106203
     81 N9         -3.6620   -2.5200    1.6250 n         1 MOL     -0.899199
     82 C25        -2.5350   -3.4700    1.3100 c3        1 MOL      0.772947
     83 C26        -1.2240   -2.6970    1.2170 c         1 MOL      0.295191
     84 O13        -1.1240   -1.7190    0.4730 o         1 MOL     -0.481293
     85 C27        -2.7040   -4.3300    0.1320 c3        1 MOL     -0.131632
     86 C28        -3.7580   -5.3990    0.3020 ca        1 MOL      0.057970
     87 C29        -5.0160   -5.0780   -0.1360 ca        1 MOL     -0.202571
     88 C30        -3.4530   -6.7140    0.7280 ca        1 MOL     -0.202571
     89 C31        -5.9590   -6.1190   -0.3330 ca        1 MOL     -0.167976
     90 C32        -4.4010   -7.7530    0.5820 ca        1 MOL     -0.167976
     91 C33        -5.6330   -7.4780   -0.0260 ca        1 MOL      0.259889
     92 O14        -6.4940   -8.4940   -0.4000 oh        1 MOL     -0.492463
     93 H37        -3.7790   -1.6320    1.1460 hn        1 MOL      0.482690
     94 H38        -2.3720   -4.1160    2.1660 h1        1 MOL     -0.095574
     95 H39        -1.8310   -4.9600   -0.0690 hc        1 MOL      0.018604
     96 H40        -2.8620   -3.7210   -0.7510 hc        1 MOL      0.018604
     97 H41        -5.2370   -4.0610   -0.4030 ha        1 MOL      0.122823
     98 H42        -2.5290   -6.8800    1.2630 ha        1 MOL      0.122823
     99 H43        -6.8920   -5.9520   -0.8390 ha        1 MOL      0.122186
    100 H44        -4.1790   -8.7610    0.8980 ha        1 MOL      0.122186
    101 H45        -6.1650   -9.3960   -0.2970 ho        1 MOL      0.365000
    102 N10        -0.1970   -3.1220    1.9830 n         1 MOL     -0.543847
    103 C34         1.1700   -2.6220    1.9070 c3        1 MOL      0.169867
    104 C35         2.0840   -3.4670    0.9740 c         1 MOL      0.434808
    105 O15         2.4380   -4.6290    1.2200 o         1 MOL     -0.522615
    106 C36         1.7940   -2.3360    3.2670 c3        1 MOL     -0.061645
    107 C37         0.9850   -1.3630    4.0760 c3        1 MOL      0.158983
    108 C38         3.2460   -1.7160    3.0760 c3        1 MOL     -0.043225
    109 C39         1.3450   -1.0480    5.5160 c3        1 MOL     -0.386863
    110 H46        -0.2530   -3.9760    2.5180 hn        1 MOL      0.311591
    111 H47         1.0900   -1.6830    1.3650 h1        1 MOL      0.070736
    112 H48         1.8250   -3.2640    3.8390 hc        1 MOL      0.026840
    113 H49        -0.0720   -1.6440    4.0060 hc        1 MOL      0.009963
    114 H50         0.9460   -0.3770    3.6200 hc        1 MOL      0.009963
    115 H51         3.7290   -1.7510    4.0510 hc        1 MOL      0.013407
    116 H52         3.7720   -2.3460    2.3580 hc        1 MOL      0.013407
    117 H53         3.1100   -0.6680    2.8080 hc        1 MOL      0.013407
    118 H54         2.2020   -0.3900    5.3500 hc        1 MOL      0.092730
    119 H55         0.5600   -0.5500    6.0870 hc        1 MOL      0.092730
    120 H56         1.6360   -1.8890    6.1520 hc        1 MOL      0.092730
    121 N11         2.4340   -2.8710   -0.2070 n         1 MOL     -0.300252
    122 C40         3.3770   -3.4710   -1.1630 c3        1 MOL      0.181134
    123 C41         4.8120   -3.4560   -0.5770 c         1 MOL      0.322452
    124 O16         5.1670   -2.6880    0.3330 o         1 MOL     -0.266717
    125 C42         3.3100   -2.7010   -2.4680 c3        1 MOL     -0.328318
    126 O17         3.9900   -1.4490   -2.5240 oh        1 MOL     -0.104779
    127 H57         1.9750   -2.0120   -0.4420 hn        1 MOL      0.207088
    128 H58         3.1420   -4.5190   -1.3190 h1        1 MOL      0.066752
    129 H59         2.2480   -2.5030   -2.6030 h1        1 MOL      0.107700
    130 H60         3.7330   -3.2310   -3.3120 h1        1 MOL      0.107700
    131 H61         3.8550   -0.9280   -3.3270 ho        1 MOL      0.304263
    132 N12         5.6830   -4.3770   -1.1230 n         1 MOL     -0.505528
    133 C43         7.1730   -4.4050   -0.8370 c3        1 MOL      0.246600
    134 C44         7.9010   -3.1190   -1.1790 c         1 MOL      0.388843
    135 O18         8.9650   -2.9600   -0.5850 o         1 MOL     -0.514247
    136 C45         7.7670   -5.6910   -1.4490 c3        1 MOL     -0.263143
    137 H62         5.3310   -4.9730   -1.8530 hn        1 MOL      0.299516
    138 H63         7.3160   -4.4470    0.2360 h1        1 MOL      0.067098
    139 H64         7.2170   -6.5600   -1.1010 hc        1 MOL      0.080256
    140 H65         7.7450   -5.6840   -2.5390 hc        1 MOL      0.080256
    141 H66         8.7740   -5.7270   -1.0490 hc        1 MOL      0.080256
    142 N13         7.3390   -2.3320   -2.0370 n         1 MOL     -0.363451
    143 C46         7.8470   -1.0350   -2.3280 c3        1 MOL      0.279908
    144 C47         7.1660    0.0780   -1.5330 c         1 MOL      0.209132
    145 O19         7.9300    1.0240   -1.1990 o         1 MOL     -0.502564
    146 C48         7.5990   -0.7210   -3.8500 c3        1 MOL     -0.163773
    147 H67         6.4760   -2.6350   -2.4760 hn        1 MOL      0.245456
    148 H68         8.9410   -0.9940   -2.2440 h1        1 MOL      0.074301
    149 H69         6.5230   -0.8340   -4.0000 hc        1 MOL      0.032499
    150 H70         8.0420    0.2670   -3.9760 hc        1 MOL      0.032499
    151 H71         8.0950   -1.4920   -4.4420 hc        1 MOL      0.032499
    152 N14         5.9610   -0.0890   -1.0440 n         1 MOL      0.192785
    153 C49         5.3750    0.8640   -0.1140 c3        1 MOL     -0.123906
    154 C50         6.1280    0.7620    1.2360 c         1 MOL      0.454111
    155 O20         6.5630    1.7400    1.7690 o         1 MOL     -0.512395
    156 C51         3.8840    0.7310    0.1630 c3        1 MOL      0.068710
    157 C52         3.0820    1.4390   -0.9660 c3        1 MOL     -0.118763
    158 C53         1.5520    1.2150   -0.8360 c         1 MOL      0.769378
    159 O21         0.7380    2.1720   -1.1450 o         1 MOL     -0.761090
    160 O22         1.1490    0.0980   -0.4770 o         1 MOL     -0.761090
    161 H72         5.4170   -0.8780   -1.3670 hn        1 MOL     -0.321211
    162 H73         5.6960    1.8430   -0.4480 h1        1 MOL      0.079262
    163 H74         3.5670    1.2300    1.0700 hc        1 MOL      0.057167
    164 H75         3.5370   -0.2930    0.2860 hc        1 MOL      0.057167
    165 H76         3.4370    1.0750   -1.9230 hc        1 MOL     -0.022682
    166 H77         3.1910    2.5100   -0.8060 hc        1 MOL     -0.022682
    167 N15         6.3930   -0.5250    1.6800 n         1 MOL     -0.148688
    168 C54         7.0250   -0.7210    3.0320 c3        1 MOL     -0.262878
    169 H78         6.2730   -0.5750    3.8080 h1        1 MOL      0.105313
    170 H79         7.4280   -1.7310    3.1020 h1        1 MOL      0.105313
    171 H80         7.8290    0.0030    3.1660 h1        1 MOL      0.105313
    172 H81         5.8950   -1.3040    1.2770 hn        1 MOL      0.109934
    173 Ca1        -1.2150    0.2500   -1.5480 Ca        1 MOL      1.809551
    174 O23        -0.6150   -2.3370   -2.6510 oh        1 MOL     -0.807953
    175 H82        -0.2200   -2.1470   -3.4980 ho        1 MOL      0.390262
    176 H83        -0.8840   -3.2630   -2.7040 ho        1 MOL      0.390262
    177 O24        -2.1360   -0.2240   -4.1800 oh        1 MOL     -0.807953
    178 H84        -2.4710    0.6150   -4.4870 ho        1 MOL      0.390262
    179 H85        -2.4410   -0.8490   -4.8390 ho        1 MOL      0.390262
    180 O25         0.7640    0.3980   -3.8540 oh        1 MOL     -0.807953
    181 H86         0.5500    0.4950   -4.7790 ho        1 MOL      0.390262
    182 H87         1.7170    0.3070   -3.8400 ho        1 MOL      0.390262
@<TRIPOS>BOND
     1    1    2 1   
     2    1    4 1   
     3    1    5 1   
     4    1    6 1   
     5    2    3 2   
     6    2    7 1   
     7    7    8 1   
     8    7   15 1   
     9    8    9 1   
    10    8   11 1   
    11    8   16 1   
    12    9   10 2   
    13    9   19 1   
    14   11   12 1   
    15   11   17 1   
    16   11   18 1   
    17   12   13 1   
    18   12   14 1   
    19   19   20 1   
    20   19   28 1   
    21   20   21 1   
    22   20   23 1   
    23   20   29 1   
    24   21   22 2   
    25   21   41 1   
    26   23   24 1   
    27   23   30 1   
    28   23   31 1   
    29   24   25 1   
    30   24   32 1   
    31   24   33 1   
    32   25   26 1   
    33   25   34 1   
    34   25   35 1   
    35   26   27 1   
    36   26   36 1   
    37   26   37 1   
    38   27   38 1   
    39   27   39 1   
    40   27   40 1   
    41   41   42 1   
    42   41   49 1   
    43   42   43 1   
    44   42   45 1   
    45   42   50 1   
    46   43   44 2   
    47   43   53 1   
    48   45   46 1   
    49   45   51 1   
    50   45   52 1   
    51   46   47 1   
    52   46   48 1   
    53   53   54 1   
    54   53   57 1   
    55   54   55 1   
    56   54   58 1   
    57   54   59 1   
    58   55   56 2   
    59   55   60 1   
    60   60   61 1   
    61   60   68 1   
    62   61   62 1   
    63   61   64 1   
    64   61   69 1   
    65   62   63 2   
    66   62   74 1   
    67   64   65 1   
    68   64   70 1   
    69   64   71 1   
    70   65   66 1   
    71   65   67 2   
    72   66   72 1   
    73   66   73 1   
    74   74   75 1   
    75   74   78 1   
    76   75   76 1   
    77   75   79 1   
    78   75   80 1   
    79   76   77 2   
    80   76   81 1   
    81   81   82 1   
    82   81   93 1   
    83   82   83 1   
    84   82   85 1   
    85   82   94 1   
    86   83   84 2   
    87   83  102 1   
    88   85   86 1   
    89   85   95 1   
    90   85   96 1   
    91   86   87 ar  
    92   86   88 ar  
    93   87   89 ar  
    94   87   97 1   
    95   88   90 ar  
    96   88   98 1   
    97   89   91 ar  
    98   89   99 1   
    99   90   91 ar  
   100   90  100 1   
   101   91   92 1   
   102   92  101 1   
   103  102  103 1   
   104  102  110 1   
   105  103  104 1   
   106  103  106 1   
   107  103  111 1   
   108  104  105 2   
   109  104  121 1   
   110  106  107 1   
   111  106  108 1   
   112  106  112 1   
   113  107  109 1   
   114  107  113 1   
   115  107  114 1   
   116  108  115 1   
   117  108  116 1   
   118  108  117 1   
   119  109  118 1   
   120  109  119 1   
   121  109  120 1   
   122  121  122 1   
   123  121  127 1   
   124  122  123 1   
   125  122  125 1   
   126  122  128 1   
   127  123  124 2   
   128  123  132 1   
   129  125  126 1   
   130  125  129 1   
   131  125  130 1   
   132  126  131 1   
   133  132  133 1   
   134  132  137 1   
   135  133  134 1   
   136  133  136 1   
   137  133  138 1   
   138  134  135 2   
   139  134  142 1   
   140  136  139 1   
   141  136  140 1   
   142  136  141 1   
   143  142  143 1   
   144  142  147 1   
   145  143  144 1   
   146  143  146 1   
   147  143  148 1   
   148  144  145 2   
   149  144  152 1   
   150  146  149 1   
   151  146  150 1   
   152  146  151 1   
   153  152  153 1   
   154  152  161 1   
   155  153  154 1   
   156  153  156 1   
   157  153  162 1   
   158  154  155 2   
   159  154  167 1   
   160  156  157 1   
   161  156  163 1   
   162  156  164 1   
   163  157  158 1   
   164  157  165 1   
   165  157  166 1   
   166  158  159 1   
   167  158  160 1   
   168  167  168 1   
   169  167  172 1   
   170  168  169 1   
   171  168  170 1   
   172  168  171 1   
   173  174  175 1   
   174  174  176 1   
   175  177  178 1   
   176  177  179 1   
   177  180  181 1   
   178  180  182 1   
@<TRIPOS>SUBSTRUCTURE
     1 MOL         1 TEMP              0 ****  ****    0 ROOT
