@<TRIPOS>MOLECULE
MOL
  189   185     1     0     0
SMALL
resp


@<TRIPOS>ATOM
      1 C1         -0.0360    1.4260    6.0670 c3        1 MOL     -0.381724
      2 C2         -0.5370    1.5250    4.6080 c         1 MOL      0.702003
      3 O1          0.1210    2.1060    3.7650 o         1 MOL     -0.605971
      4 H1         -0.8000    0.9500    6.6810 hc        1 MOL      0.102102
      5 H2          0.8770    0.8300    6.0990 hc        1 MOL      0.102102
      6 H3          0.1680    2.4250    6.4510 hc        1 MOL      0.102102
      7 N1         -1.7330    1.1360    4.2820 n         1 MOL     -0.525508
      8 C3         -2.3600    1.0870    2.9750 c3        1 MOL      0.239415
      9 C4         -2.8470    2.5130    2.5410 c         1 MOL      0.426472
     10 O2         -4.0120    2.8700    2.8510 o         1 MOL     -0.502478
     11 C5         -3.5770    0.1360    2.9240 c3        1 MOL     -0.317138
     12 C6         -4.2220   -0.1240    1.5180 c         1 MOL      0.783199
     13 O3         -3.6130    0.2840    0.5000 o         1 MOL     -0.685888
     14 O4         -5.2820   -0.8420    1.5140 o         1 MOL     -0.685888
     15 H4         -2.3100    0.6890    4.9810 hn        1 MOL      0.288757
     16 H5         -1.5900    0.7640    2.2730 h1        1 MOL     -0.009584
     17 H6         -4.3020    0.5180    3.6390 hc        1 MOL      0.068422
     18 H7         -3.2090   -0.8370    3.2670 hc        1 MOL      0.068422
     19 N2         -1.9880    3.3170    1.8390 n         1 MOL     -0.330077
     20 C7         -2.3500    4.6890    1.4350 c3        1 MOL     -0.074573
     21 C8         -3.6190    4.7500    0.5050 c         1 MOL      0.469347
     22 O5         -4.4630    5.5940    0.7030 o         1 MOL     -0.577326
     23 C9         -1.1930    5.3560    0.7550 c3        1 MOL     -0.041349
     24 C10        -1.2640    6.9110    0.5380 c3        1 MOL      0.065828
     25 C11         0.0500    7.4920   -0.1060 c3        1 MOL     -0.092043
     26 C12        -0.1030    8.9000   -0.6340 c3        1 MOL      0.055573
     27 N3         -0.4160    9.9300    0.4320 n4        1 MOL     -0.422549
     28 H8         -1.1120    2.8750    1.5950 hn        1 MOL      0.293387
     29 H9         -2.5710    5.3240    2.2930 h1        1 MOL      0.081039
     30 H10        -1.1970    4.9000   -0.2380 hc        1 MOL      0.050855
     31 H11        -0.2090    5.1780    1.1840 hc        1 MOL      0.050855
     32 H12        -1.5470    7.3710    1.4770 hc        1 MOL     -0.009213
     33 H13        -2.1110    7.0160   -0.1460 hc        1 MOL     -0.009213
     34 H14         0.2480    6.8540   -0.9700 hc        1 MOL      0.054834
     35 H15         0.8320    7.3820    0.6490 hc        1 MOL      0.054834
     36 H16        -0.8240    8.9320   -1.4400 hx        1 MOL      0.084861
     37 H17         0.8490    9.1960   -1.0800 hx        1 MOL      0.084861
     38 H18         0.2270    9.8710    1.2100 hn        1 MOL      0.342422
     39 H19        -0.3450   10.8260   -0.0220 hn        1 MOL      0.342422
     40 H20        -1.3540    9.8490    0.8050 hn        1 MOL      0.342422
     41 N4         -3.6790    3.7860   -0.4210 n         1 MOL     -0.077903
     42 C13        -4.5760    3.9400   -1.5220 c3        1 MOL     -0.040365
     43 C14        -5.7190    2.9180   -1.4230 c         1 MOL      0.500192
     44 O6         -6.5410    2.8640   -2.3240 o         1 MOL     -0.519775
     45 C15        -3.8970    3.9640   -2.9070 c3        1 MOL     -0.300467
     46 C16        -2.7950    2.8710   -3.0770 c         1 MOL      0.760784
     47 O7         -2.5220    2.0360   -2.1710 o         1 MOL     -0.705465
     48 O8         -2.1960    2.8840   -4.1960 o         1 MOL     -0.705465
     49 H21        -2.9760    3.0640   -0.5050 hn        1 MOL      0.130701
     50 H22        -5.0820    4.9010   -1.4280 h1        1 MOL      0.090887
     51 H23        -3.4720    4.9660   -3.0020 hc        1 MOL      0.083717
     52 H24        -4.6220    3.8070   -3.7030 hc        1 MOL      0.083717
     53 N5         -5.8700    2.2490   -0.2460 n         1 MOL     -0.355936
     54 C17        -7.1030    1.4850    0.1110 c3        1 MOL     -0.100928
     55 C18        -7.5640    0.3530   -0.8510 c         1 MOL      0.503967
     56 O9         -8.7710    0.1900   -1.0230 o         1 MOL     -0.569730
     57 H25        -5.1400    2.3140    0.4570 hn        1 MOL      0.246639
     58 H26        -7.9510    2.1410   -0.0240 h1        1 MOL      0.086960
     59 H27        -7.1450    1.0220    1.0990 h1        1 MOL      0.086960
     60 N6         -6.5940   -0.3480   -1.5260 n         1 MOL     -0.113255
     61 C19        -6.7980   -1.4980   -2.3270 c3        1 MOL     -0.071011
     62 C20        -6.6840   -2.9050   -1.6400 c         1 MOL      0.395833
     63 O10        -6.8800   -3.9160   -2.3720 o         1 MOL     -0.539432
     64 C21        -5.7320   -1.4080   -3.4600 c3        1 MOL     -0.285063
     65 C22        -4.2820   -1.2870   -2.8920 c         1 MOL      0.814862
     66 O11        -3.3510   -0.8930   -3.6170 o         1 MOL     -0.714823
     67 O12        -3.9790   -1.6420   -1.7460 o         1 MOL     -0.714823
     68 H28        -5.6570   -0.2370   -1.1790 hn        1 MOL      0.055333
     69 H29        -7.7630   -1.4370   -2.8400 h1        1 MOL      0.121810
     70 H30        -5.8890   -0.4430   -3.9480 hc        1 MOL      0.089860
     71 H31        -5.8600   -2.2690   -4.1100 hc        1 MOL      0.089860
     72 N7         -6.5040   -2.9620   -0.3330 n         1 MOL     -0.229663
     73 C23        -6.4190   -4.1620    0.4400 c3        1 MOL     -0.188572
     74 C24        -5.0980   -4.8300    0.5300 c         1 MOL      0.587570
     75 O13        -5.0780   -5.8710    1.0700 o         1 MOL     -0.561742
     76 H32        -6.3850   -2.0940    0.1780 hn        1 MOL      0.267387
     77 H33        -7.2620   -4.8280    0.2590 h1        1 MOL      0.110473
     78 H34        -6.6060   -3.7960    1.4540 h1        1 MOL      0.110473
     79 N8         -3.9640   -4.2630    0.0050 n         1 MOL     -0.296969
     80 C25        -2.6180   -4.9030    0.1820 c3        1 MOL     -0.113149
     81 C26        -1.6310   -3.7970    0.5950 c         1 MOL      0.711757
     82 O14        -1.8710   -2.5740    0.4140 o         1 MOL     -0.669813
     83 C27        -2.1590   -5.7720   -1.0790 c3        1 MOL      0.245511
     84 C28        -2.8400   -7.1630   -1.2170 c3        1 MOL     -0.502083
     85 O15        -2.3040   -5.1180   -2.3200 oh        1 MOL     -0.571770
     86 H35        -4.0430   -3.3660   -0.4450 hn        1 MOL      0.252392
     87 H36        -2.7490   -5.5980    1.0110 h1        1 MOL      0.097863
     88 H37        -1.0740   -5.9220   -1.0210 h1        1 MOL      0.076139
     89 H38        -3.2160   -5.2010   -2.5790 ho        1 MOL      0.408362
     90 H39        -2.4380   -7.6420   -2.1140 hc        1 MOL      0.143222
     91 H40        -2.6130   -7.8040   -0.3640 hc        1 MOL      0.143222
     92 H41        -3.9250   -7.0740   -1.2050 hc        1 MOL      0.143222
     93 N9         -0.4670   -4.2240    1.1660 n         1 MOL     -0.628370
     94 C29         0.6690   -3.3490    1.6250 c3        1 MOL      0.025636
     95 C30         1.9980   -3.8150    0.9740 c         1 MOL      0.529406
     96 O16         2.4350   -4.9430    1.0930 o         1 MOL     -0.536715
     97 C31         0.7820   -3.3030    3.2170 c3        1 MOL      0.452254
     98 C32        -0.5800   -3.0450    3.9330 c3        1 MOL      0.002694
     99 C33         1.9150   -2.3400    3.7270 c3        1 MOL     -0.669454
    100 C34        -0.6310   -3.2320    5.4390 c3        1 MOL     -0.161287
    101 H42        -0.3100   -5.1920    1.3910 hn        1 MOL      0.293529
    102 H43         0.4740   -2.3040    1.3860 h1        1 MOL      0.098841
    103 H44         1.0340   -4.3370    3.4470 hc        1 MOL     -0.087843
    104 H45        -1.3430   -3.7390    3.5770 hc        1 MOL      0.005472
    105 H46        -0.8830   -2.0510    3.6100 hc        1 MOL      0.005472
    106 H47         2.8680   -2.8380    3.5520 hc        1 MOL      0.137232
    107 H48         1.7610   -1.3880    3.2180 hc        1 MOL      0.137232
    108 H49         1.7460   -2.2750    4.7970 hc        1 MOL      0.137232
    109 H50        -1.5880   -3.0250    5.9170 hc        1 MOL      0.034335
    110 H51        -0.2660   -4.2310    5.6910 hc        1 MOL      0.034335
    111 H52         0.0270   -2.6060    6.0340 hc        1 MOL      0.034335
    112 N10         2.4720   -2.7710    0.2130 n         1 MOL     -0.321442
    113 C35         3.7220   -2.8560   -0.5860 c3        1 MOL     -0.011554
    114 C36         4.8920   -2.2920    0.2510 c         1 MOL      0.395697
    115 O17         4.7140   -1.7020    1.3450 o         1 MOL     -0.327336
    116 C37         3.5840   -2.0690   -1.8880 c3        1 MOL      0.121133
    117 C38         2.5370   -2.5060   -2.9160 c3        1 MOL     -0.375281
    118 O18         3.4790   -0.7250   -1.7050 oh        1 MOL     -0.485270
    119 H53         2.0790   -1.8500    0.2990 hn        1 MOL      0.280338
    120 H54         3.8600   -3.9160   -0.8030 h1        1 MOL      0.089128
    121 H55         4.4940   -2.2340   -2.4800 h1        1 MOL      0.021912
    122 H56         2.6160   -0.4890   -2.0520 ho        1 MOL      0.379223
    123 H57         1.5960   -2.0880   -2.5510 hc        1 MOL      0.119708
    124 H58         2.7220   -2.3000   -3.9680 hc        1 MOL      0.119708
    125 H59         2.3050   -3.5630   -2.9630 hc        1 MOL      0.119708
    126 N11         6.1050   -2.6350   -0.2680 n         1 MOL     -0.319009
    127 C39         7.4160   -2.2550    0.2620 c3        1 MOL     -0.078431
    128 C40         7.5440   -0.7430    0.3680 c         1 MOL      0.213020
    129 O19         7.8560   -0.1930    1.3930 o         1 MOL     -0.449859
    130 C41         8.6200   -2.8010   -0.5200 c3        1 MOL      0.340532
    131 C42         8.8910   -4.3220   -0.3360 c3        1 MOL     -0.482091
    132 O20         8.3840   -2.6760   -1.9300 oh        1 MOL     -0.656043
    133 H60         6.0910   -3.0620   -1.1890 hn        1 MOL      0.187413
    134 H61         7.5360   -2.6150    1.2850 h1        1 MOL      0.142009
    135 H62         9.5500   -2.2880   -0.2530 h1        1 MOL      0.088081
    136 H63         7.9110   -3.4680   -2.2010 ho        1 MOL      0.418962
    137 H64         8.0610   -4.8690   -0.7710 hc        1 MOL      0.133347
    138 H65         9.7050   -4.7090   -0.9540 hc        1 MOL      0.133347
    139 H66         8.9100   -4.4830    0.7440 hc        1 MOL      0.133347
    140 N12         7.0500   -0.0710   -0.6750 n         1 MOL     -0.016155
    141 C43         7.0270    1.4450   -0.7070 c3        1 MOL     -0.173480
    142 C44         6.0640    1.9940    0.3500 c         1 MOL      0.517394
    143 O21         6.2160    3.1770    0.6230 o         1 MOL     -0.563907
    144 C45         6.6670    1.9240   -2.0860 c3        1 MOL     -0.296294
    145 C46         7.8700    1.6880   -3.0400 c3        1 MOL      0.307866
    146 C47         7.4220    1.7800   -4.4870 c3        1 MOL     -0.175123
    147 C48         8.6080    1.3430   -5.3570 c3        1 MOL      0.056691
    148 N13         9.6760    2.3950   -5.5860 n4        1 MOL     -0.335356
    149 H67         6.8830   -0.6400   -1.4910 hn        1 MOL      0.205693
    150 H68         7.9840    1.8240   -0.3740 h1        1 MOL      0.119657
    151 H69         6.4350    2.9920   -2.1370 hc        1 MOL      0.097236
    152 H70         5.8040    1.3340   -2.3650 hc        1 MOL      0.097236
    153 H71         8.2430    0.6830   -2.8600 hc        1 MOL     -0.053243
    154 H72         8.7370    2.3350   -2.8630 hc        1 MOL     -0.053243
    155 H73         7.0270    2.7420   -4.8360 hc        1 MOL      0.080554
    156 H74         6.6350    1.0340   -4.6060 hc        1 MOL      0.080554
    157 H75         8.2140    0.9120   -6.2880 hx        1 MOL      0.078968
    158 H76         9.1860    0.5450   -4.9050 hx        1 MOL      0.078968
    159 H77         9.2710    3.1830   -6.0750 hn        1 MOL      0.287209
    160 H78        10.0390    2.8520   -4.7720 hn        1 MOL      0.287209
    161 H79        10.4420    2.0190   -6.1250 hn        1 MOL      0.287209
    162 N14         5.1370    1.2260    0.8810 n         1 MOL      0.028421
    163 C49         4.0650    1.7210    1.7940 c3        1 MOL     -0.200233
    164 C50         4.4950    1.5100    3.2640 c         1 MOL      0.488665
    165 O22         4.4060    2.4550    4.0410 o         1 MOL     -0.538967
    166 C51         2.6890    0.9860    1.5370 c3        1 MOL      0.380609
    167 C52         1.9530    1.5220    0.2990 c3        1 MOL     -0.178102
    168 C53         0.6800    0.7840    0.0860 c         1 MOL      0.821827
    169 O23         0.6630   -0.4500   -0.2290 o         1 MOL     -0.770740
    170 O24        -0.3460    1.4820    0.1520 o         1 MOL     -0.770740
    171 H80         5.0920    0.2340    0.7130 hn        1 MOL     -0.076813
    172 H81         3.9320    2.7940    1.6770 h1        1 MOL      0.105869
    173 H82         2.0750    1.1560    2.4160 hc        1 MOL     -0.077663
    174 H83         2.8540   -0.0810    1.3650 hc        1 MOL     -0.077663
    175 H84         2.5840    1.3980   -0.5820 hc        1 MOL     -0.001638
    176 H85         1.8320    2.5940    0.4640 hc        1 MOL     -0.001638
    177 N15         5.0630    0.3730    3.6860 n         1 MOL     -0.214350
    178 C54         5.8730    0.2220    4.8420 c3        1 MOL     -0.227471
    179 H86         5.6170    0.9930    5.5680 h1        1 MOL      0.097869
    180 H87         5.7010   -0.7610    5.2810 h1        1 MOL      0.097869
    181 H88         6.9230    0.3170    4.5650 h1        1 MOL      0.097869
    182 H89         5.0740   -0.3390    2.9630 hn        1 MOL      0.223772
    183 Ca1        -1.8740   -0.3070   -1.1280 Ca        1 MOL      1.737221
    184 O25        -1.2490   -2.6890   -2.3400 oh        1 MOL     -0.837481
    185 H90        -1.7920   -3.4670   -2.2140 ho        1 MOL      0.390808
    186 H91        -0.8740   -2.8060   -3.2210 ho        1 MOL      0.390808
    187 O26        -0.2120    0.6100   -3.3060 oh        1 MOL     -0.837481
    188 H92        -0.1510    0.1390   -4.1380 ho        1 MOL      0.390808
    189 H93        -0.7750    1.3630   -3.4970 ho        1 MOL      0.390808
@<TRIPOS>BOND
     1    1    2 1   
     2    1    4 1   
     3    1    5 1   
     4    1    6 1   
     5    2    3 2   
     6    2    7 1   
     7    7    8 1   
     8    7   15 1   
     9    8    9 1   
    10    8   11 1   
    11    8   16 1   
    12    9   10 2   
    13    9   19 1   
    14   11   12 1   
    15   11   17 1   
    16   11   18 1   
    17   12   13 1   
    18   12   14 1   
    19   19   20 1   
    20   19   28 1   
    21   20   21 1   
    22   20   23 1   
    23   20   29 1   
    24   21   22 2   
    25   21   41 1   
    26   23   24 1   
    27   23   30 1   
    28   23   31 1   
    29   24   25 1   
    30   24   32 1   
    31   24   33 1   
    32   25   26 1   
    33   25   34 1   
    34   25   35 1   
    35   26   27 1   
    36   26   36 1   
    37   26   37 1   
    38   27   38 1   
    39   27   39 1   
    40   27   40 1   
    41   41   42 1   
    42   41   49 1   
    43   42   43 1   
    44   42   45 1   
    45   42   50 1   
    46   43   44 2   
    47   43   53 1   
    48   45   46 1   
    49   45   51 1   
    50   45   52 1   
    51   46   47 1   
    52   46   48 1   
    53   53   54 1   
    54   53   57 1   
    55   54   55 1   
    56   54   58 1   
    57   54   59 1   
    58   55   56 2   
    59   55   60 1   
    60   60   61 1   
    61   60   68 1   
    62   61   62 1   
    63   61   64 1   
    64   61   69 1   
    65   62   63 2   
    66   62   72 1   
    67   64   65 1   
    68   64   70 1   
    69   64   71 1   
    70   65   66 1   
    71   65   67 1   
    72   72   73 1   
    73   72   76 1   
    74   73   74 1   
    75   73   77 1   
    76   73   78 1   
    77   74   75 2   
    78   74   79 1   
    79   79   80 1   
    80   79   86 1   
    81   80   81 1   
    82   80   83 1   
    83   80   87 1   
    84   81   82 2   
    85   81   93 1   
    86   83   84 1   
    87   83   85 1   
    88   83   88 1   
    89   84   90 1   
    90   84   91 1   
    91   84   92 1   
    92   85   89 1   
    93   93   94 1   
    94   93  101 1   
    95   94   95 1   
    96   94   97 1   
    97   94  102 1   
    98   95   96 2   
    99   95  112 1   
   100   97   98 1   
   101   97   99 1   
   102   97  103 1   
   103   98  100 1   
   104   98  104 1   
   105   98  105 1   
   106   99  106 1   
   107   99  107 1   
   108   99  108 1   
   109  100  109 1   
   110  100  110 1   
   111  100  111 1   
   112  112  113 1   
   113  112  119 1   
   114  113  114 1   
   115  113  116 1   
   116  113  120 1   
   117  114  115 2   
   118  114  126 1   
   119  116  117 1   
   120  116  118 1   
   121  116  121 1   
   122  117  123 1   
   123  117  124 1   
   124  117  125 1   
   125  118  122 1   
   126  126  127 1   
   127  126  133 1   
   128  127  128 1   
   129  127  130 1   
   130  127  134 1   
   131  128  129 2   
   132  128  140 1   
   133  130  131 1   
   134  130  132 1   
   135  130  135 1   
   136  131  137 1   
   137  131  138 1   
   138  131  139 1   
   139  132  136 1   
   140  140  141 1   
   141  140  149 1   
   142  141  142 1   
   143  141  144 1   
   144  141  150 1   
   145  142  143 2   
   146  142  162 1   
   147  144  145 1   
   148  144  151 1   
   149  144  152 1   
   150  145  146 1   
   151  145  153 1   
   152  145  154 1   
   153  146  147 1   
   154  146  155 1   
   155  146  156 1   
   156  147  148 1   
   157  147  157 1   
   158  147  158 1   
   159  148  159 1   
   160  148  160 1   
   161  148  161 1   
   162  162  163 1   
   163  162  171 1   
   164  163  164 1   
   165  163  166 1   
   166  163  172 1   
   167  164  165 2   
   168  164  177 1   
   169  166  167 1   
   170  166  173 1   
   171  166  174 1   
   172  167  168 1   
   173  167  175 1   
   174  167  176 1   
   175  168  169 1   
   176  168  170 1   
   177  177  178 1   
   178  177  182 1   
   179  178  179 1   
   180  178  180 1   
   181  178  181 1   
   182  184  185 1   
   183  184  186 1   
   184  187  188 1   
   185  187  189 1   
@<TRIPOS>SUBSTRUCTURE
     1 MOL         1 TEMP              0 ****  ****    0 ROOT
