@<TRIPOS>MOLECULE
MOL
  183   181     1     0     0
SMALL
resp


@<TRIPOS>ATOM
      1 C1         -0.7400    1.5650    6.1630 c3        1 MOL     -0.175116
      2 C2         -0.9700    1.5260    4.6340 c         1 MOL      0.766326
      3 O1         -0.0640    1.8480    3.8530 o         1 MOL     -0.605673
      4 H1         -0.9150    2.5770    6.5310 hc        1 MOL      0.030001
      5 H2         -1.4280    0.8770    6.6530 hc        1 MOL      0.030001
      6 H3          0.2870    1.2710    6.3840 hc        1 MOL      0.030001
      7 N1         -2.1870    1.1690    4.2460 n         1 MOL     -0.679204
      8 C3         -2.7620    1.3490    2.9260 c3        1 MOL      0.192420
      9 C4         -2.9760    2.8770    2.5620 c         1 MOL      0.540239
     10 O2         -3.8040    3.6160    3.1950 o         1 MOL     -0.582629
     11 C5         -4.0390    0.5760    2.8260 c3        1 MOL     -0.161833
     12 C6         -4.6940    0.6720    1.4270 c         1 MOL      0.647387
     13 O3         -5.9800    0.6040    1.3810 o         1 MOL     -0.623086
     14 O4         -3.9880    0.8570    0.3750 o         1 MOL     -0.623086
     15 H4         -2.7460    0.7310    4.9700 hn        1 MOL      0.331890
     16 H5         -2.0360    0.8790    2.2690 h1        1 MOL      0.009542
     17 H6         -4.7820    0.9300    3.5370 hc        1 MOL      0.028190
     18 H7         -3.7710   -0.4590    3.0480 hc        1 MOL      0.028190
     19 N2         -2.2130    3.3200    1.5750 n         1 MOL     -0.418118
     20 C7         -2.4050    4.6440    1.0820 c3        1 MOL     -0.045853
     21 C8         -3.5560    4.8140    0.0820 c         1 MOL      0.661412
     22 O5         -4.2150    5.8250    0.1120 o         1 MOL     -0.606243
     23 C9         -1.0500    5.1230    0.6300 c3        1 MOL      0.221968
     24 C10         0.0480    4.8680    1.7880 c3        1 MOL      0.030181
     25 C11        -1.1270    6.6860    0.4630 c3        1 MOL     -0.393084
     26 C12         1.4040    5.5250    1.4050 c3        1 MOL     -0.279479
     27 H8         -1.7010    2.6480    1.0250 hn        1 MOL      0.287318
     28 H9         -2.7260    5.2830    1.8990 h1        1 MOL      0.064793
     29 H10        -0.7650    4.6340   -0.3100 hc        1 MOL      0.009977
     30 H11         0.2050    3.8070    1.9590 hc        1 MOL      0.024879
     31 H12        -0.2000    5.2450    2.7790 hc        1 MOL      0.024879
     32 H13        -1.4380    7.1650    1.3920 hc        1 MOL      0.079747
     33 H14        -0.1640    7.0220    0.0860 hc        1 MOL      0.079747
     34 H15        -1.9060    6.9340   -0.2640 hc        1 MOL      0.079747
     35 H16         1.6620    5.1930    0.3940 hc        1 MOL      0.063580
     36 H17         1.4950    6.6140    1.3470 hc        1 MOL      0.063580
     37 H18         2.2450    5.0960    1.9430 hc        1 MOL      0.063580
     38 N3         -3.8640    3.8220   -0.7620 n         1 MOL     -0.497634
     39 C13        -4.7460    3.9960   -1.9360 c3        1 MOL      0.007718
     40 C14        -6.1210    3.2950   -1.7920 c         1 MOL      0.447155
     41 O6         -7.0060    3.6950   -2.5520 o         1 MOL     -0.579758
     42 C15        -4.0810    3.6120   -3.2200 c3        1 MOL     -0.020034
     43 C16        -3.3450    2.2670   -3.3230 c         1 MOL      0.721077
     44 O7         -3.1880    1.6280   -2.2910 o         1 MOL     -0.708080
     45 O8         -2.8290    1.9410   -4.4560 o         1 MOL     -0.708080
     46 H19        -3.3880    2.9400   -0.6600 hn        1 MOL      0.271656
     47 H20        -4.9700    5.0490   -2.1150 h1        1 MOL      0.085241
     48 H21        -3.2980    4.2990   -3.5410 hc        1 MOL      0.000639
     49 H22        -4.7570    3.6690   -4.0670 hc        1 MOL      0.000639
     50 N4         -6.3820    2.3490   -0.8730 n         1 MOL     -0.021454
     51 C17        -7.7120    1.8210   -0.5710 c3        1 MOL     -0.196166
     52 C18        -8.0390    0.4660   -1.2310 c         1 MOL      0.657035
     53 O9         -8.9340    0.3720   -2.0400 o         1 MOL     -0.603945
     54 H23        -5.5460    1.9150   -0.4910 hn        1 MOL      0.073353
     55 H24        -8.3980    2.6190   -0.8360 h1        1 MOL      0.063344
     56 H25        -7.7660    1.6450    0.5060 h1        1 MOL      0.063344
     57 N5         -7.2680   -0.5720   -0.9020 n         1 MOL     -0.492480
     58 C19        -7.4710   -1.9170   -1.4640 c3        1 MOL      0.101862
     59 C20        -7.4190   -3.0440   -0.4200 c         1 MOL      0.299222
     60 O10        -7.7010   -4.1590   -0.7910 o         1 MOL     -0.520774
     61 C21        -6.4170   -2.1590   -2.5010 c3        1 MOL      0.004271
     62 C22        -4.9520   -1.8040   -2.0070 c         1 MOL      0.578054
     63 O11        -4.1360   -1.4380   -2.8430 o         1 MOL     -0.673930
     64 O12        -4.5860   -1.9180   -0.7990 o         1 MOL     -0.673930
     65 H26        -6.5680   -0.4080   -0.1950 hn        1 MOL      0.253529
     66 H27        -8.3710   -1.9930   -2.0710 h1        1 MOL      0.067028
     67 H28        -6.6440   -1.5260   -3.3620 hc        1 MOL      0.016569
     68 H29        -6.5600   -3.1760   -2.8450 hc        1 MOL      0.016569
     69 N6         -6.8930   -2.8440    0.7870 n         1 MOL     -0.093773
     70 C23        -6.7940   -3.8820    1.7580 c3        1 MOL     -0.110045
     71 C24        -5.3710   -4.4010    2.0630 c         1 MOL      0.586103
     72 O13        -5.1940   -5.4000    2.7160 o         1 MOL     -0.610799
     73 H30        -6.6330   -1.8870    0.9920 hn        1 MOL      0.142693
     74 H31        -7.5490   -4.6500    1.6090 h1        1 MOL      0.057940
     75 H32        -6.9830   -3.3970    2.7110 h1        1 MOL      0.057940
     76 N7         -4.3360   -3.7480    1.5260 n         1 MOL     -0.319195
     77 C25        -2.9650   -4.2690    1.5120 c3        1 MOL      0.062785
     78 C26        -1.8630   -3.2090    1.3500 c         1 MOL      0.525825
     79 O14        -2.1880   -2.0260    1.2230 o         1 MOL     -0.616032
     80 C27        -2.7900   -5.2890    0.3650 c3        1 MOL      0.106049
     81 C28        -3.0240   -4.8430   -1.0550 c3        1 MOL     -0.211998
     82 C29        -1.9130   -4.1020   -1.7500 c         1 MOL      0.603874
     83 N8         -1.0080   -4.8500   -2.2770 n         1 MOL     -0.713727
     84 O15        -1.8220   -2.8720   -1.6770 o         1 MOL     -0.544521
     85 H33        -4.5720   -3.0120    0.8790 hn        1 MOL      0.237064
     86 H34        -2.7510   -4.8030    2.4330 h1        1 MOL      0.050734
     87 H35        -3.3570   -6.1790    0.6370 hc        1 MOL     -0.027277
     88 H36        -1.7630   -5.6490    0.3990 hc        1 MOL     -0.027277
     89 H37        -3.8950   -4.1780   -1.0920 hc        1 MOL      0.062383
     90 H38        -3.2790   -5.7170   -1.6540 hc        1 MOL      0.062383
     91 H39        -1.1020   -5.8450   -2.2870 hn        1 MOL      0.346178
     92 H40        -0.2180   -4.4410   -2.7570 hn        1 MOL      0.346178
     93 N9         -0.5650   -3.6040    1.4990 n         1 MOL     -0.470877
     94 C30         0.4930   -2.6030    1.7810 c3        1 MOL     -0.206247
     95 C31         1.7470   -3.1250    1.0800 c         1 MOL      0.484883
     96 O16         2.2610   -4.1820    1.4960 o         1 MOL     -0.564028
     97 C32         0.6520   -2.5340    3.3340 c3        1 MOL      0.265514
     98 C33         1.7310   -1.5470    3.7760 c3        1 MOL     -0.291354
     99 C34        -0.6290   -1.9850    4.0020 c3        1 MOL     -0.291354
    100 H41        -0.4100   -4.5820    1.6930 hn        1 MOL      0.305571
    101 H42         0.2760   -1.6290    1.3310 h1        1 MOL      0.246078
    102 H43         0.8940   -3.4850    3.8290 hc        1 MOL     -0.006483
    103 H44         1.5020   -0.4870    3.6200 hc        1 MOL      0.059308
    104 H45         1.7600   -1.7620    4.8480 hc        1 MOL      0.059308
    105 H46         2.6980   -1.7970    3.3460 hc        1 MOL      0.059308
    106 H47        -0.4970   -1.8200    5.0640 hc        1 MOL      0.059308
    107 H48        -0.9950   -1.1270    3.4390 hc        1 MOL      0.059308
    108 H49        -1.4260   -2.7280    3.9460 hc        1 MOL      0.059308
    109 N10         2.1860   -2.4230    0.0200 n         1 MOL     -0.088025
    110 C35         3.3450   -2.6790   -0.7890 c3        1 MOL     -0.079924
    111 C36         4.5850   -2.0910   -0.0920 c         1 MOL      0.384425
    112 O17         4.4930   -1.4980    0.9970 o         1 MOL     -0.323186
    113 C37         3.1670   -1.9040   -2.0840 c3        1 MOL     -0.349694
    114 C38         1.9640   -2.4930   -2.7420 c         1 MOL      0.740660
    115 N11         0.8050   -1.8370   -2.7810 n         1 MOL     -0.781970
    116 O18         2.0140   -3.6620   -3.1830 o         1 MOL     -0.630464
    117 H50         1.6060   -1.6950   -0.3750 hn        1 MOL      0.098928
    118 H51         3.4630   -3.7430   -0.9990 h1        1 MOL      0.096996
    119 H52         3.9660   -1.9590   -2.8120 hc        1 MOL      0.104434
    120 H53         3.1390   -0.8240   -1.9380 hc        1 MOL      0.104434
    121 H54         0.8180   -1.0530   -2.1360 hn        1 MOL      0.384447
    122 H55        -0.0290   -2.2080   -3.2010 hn        1 MOL      0.384447
    123 N12         5.7340   -2.2120   -0.8230 n         1 MOL     -0.462376
    124 C39         7.0010   -1.7270   -0.3630 c3        1 MOL      0.098142
    125 C40         7.0110   -0.1360   -0.3640 c         1 MOL      0.651057
    126 O19         7.3790    0.4280    0.6830 o         1 MOL     -0.560588
    127 C41         8.1010   -2.3890   -1.2970 c3        1 MOL     -0.056316
    128 C42         9.4570   -1.7600   -0.8880 ca        1 MOL      0.006427
    129 C43        10.1960   -2.1850    0.2710 ca        1 MOL     -0.244239
    130 C44        10.0160   -0.7270   -1.6920 ca        1 MOL     -0.244239
    131 C45        11.3860   -1.5520    0.6310 ca        1 MOL     -0.091347
    132 C46        11.2570   -0.2250   -1.3600 ca        1 MOL     -0.091347
    133 C47        11.9750   -0.6970   -0.2430 ca        1 MOL      0.194549
    134 O20        13.2140   -0.2650    0.0700 oh        1 MOL     -0.479906
    135 H56         5.7410   -2.7060   -1.7030 hn        1 MOL      0.297846
    136 H57         7.1860   -2.1190    0.6390 h1        1 MOL      0.060992
    137 H58         7.8710   -2.0950   -2.3220 hc        1 MOL      0.042101
    138 H59         8.0460   -3.4700   -1.3640 hc        1 MOL      0.042101
    139 H60         9.7850   -2.9560    0.9050 ha        1 MOL      0.149181
    140 H61         9.5770   -0.4060   -2.6220 ha        1 MOL      0.149181
    141 H62        11.8860   -1.9560    1.5020 ha        1 MOL      0.104402
    142 H63        11.7120    0.5650   -1.9520 ha        1 MOL      0.104402
    143 H64        13.4700    0.4320   -0.5310 ho        1 MOL      0.357926
    144 N13         6.4980    0.5500   -1.3980 n         1 MOL     -0.406207
    145 C48         6.2530    2.0110   -1.3520 c3        1 MOL     -0.075027
    146 C49         5.3570    2.4830   -0.2350 c         1 MOL      0.361837
    147 O21         5.3570    3.6990    0.1630 o         1 MOL     -0.519018
    148 C50         5.7310    2.4250   -2.7280 c3        1 MOL     -0.063864
    149 C51         4.2480    1.9690   -2.9980 c3        1 MOL     -0.264998
    150 C52         3.9080    2.0340   -4.4910 c         1 MOL      0.675317
    151 O22         4.4550    1.1560   -5.2230 o         1 MOL     -0.715439
    152 O23         2.9670    2.7740   -4.9170 o         1 MOL     -0.715439
    153 H65         6.2900    0.0720   -2.2670 hn        1 MOL      0.250536
    154 H66         7.1830    2.5370   -1.1670 h1        1 MOL      0.088270
    155 H67         6.3240    2.1510   -3.6030 hc        1 MOL      0.045628
    156 H68         5.7820    3.5200   -2.7090 hc        1 MOL      0.045628
    157 H69         3.6250    2.6370   -2.4090 hc        1 MOL      0.089626
    158 H70         4.1120    0.9390   -2.6710 hc        1 MOL      0.089626
    159 N14         4.5540    1.5790    0.3830 n         1 MOL     -0.082941
    160 C53         3.7160    2.0140    1.4760 c3        1 MOL     -0.133641
    161 C54         4.4100    1.8010    2.8090 c         1 MOL      0.440898
    162 O24         4.3390    2.5950    3.7110 o         1 MOL     -0.543537
    163 C55         2.3620    1.2550    1.4680 c3        1 MOL      0.096506
    164 C56         1.5250    1.7440    0.2290 c3        1 MOL      0.149217
    165 C57         0.2360    0.9180   -0.0400 c         1 MOL      0.641045
    166 O25        -0.9390    1.3450    0.1310 o         1 MOL     -0.719207
    167 O26         0.3500   -0.2020   -0.5040 o         1 MOL     -0.719207
    168 H71         4.6170    0.6170    0.1000 hn        1 MOL      0.194274
    169 H72         3.4310    3.0560    1.3400 h1        1 MOL      0.144957
    170 H73         1.8190    1.6680    2.3250 hc        1 MOL      0.012453
    171 H74         2.4790    0.1860    1.5990 hc        1 MOL      0.012453
    172 H75         2.1820    1.5600   -0.6160 hc        1 MOL     -0.085019
    173 H76         1.2890    2.7940    0.3930 hc        1 MOL     -0.085019
    174 N15         5.1770    0.7040    2.8940 n         1 MOL     -0.070966
    175 C58         6.0220    0.3030    4.0730 c3        1 MOL     -0.251613
    176 H77         5.8590    1.0040    4.8910 h1        1 MOL      0.088710
    177 H78         5.7450   -0.7010    4.3950 h1        1 MOL      0.088710
    178 H79         7.0740    0.3160    3.7870 h1        1 MOL      0.088710
    179 H80         5.2320    0.0170    2.1560 hn        1 MOL      0.052382
    180 Ca1        -2.3740   -0.4420   -1.0280 Ca        1 MOL      1.749811
    181 O27        -1.0610    0.1450   -3.4390 oh        1 MOL     -0.912143
    182 H81        -1.5830    0.8510   -3.8240 ho        1 MOL      0.426996
    183 H82        -0.1710    0.2880   -3.7690 ho        1 MOL      0.426996
@<TRIPOS>BOND
     1    1    2 1   
     2    1    4 1   
     3    1    5 1   
     4    1    6 1   
     5    2    3 2   
     6    2    7 1   
     7    7    8 1   
     8    7   15 1   
     9    8    9 1   
    10    8   11 1   
    11    8   16 1   
    12    9   10 2   
    13    9   19 1   
    14   11   12 1   
    15   11   17 1   
    16   11   18 1   
    17   12   13 1   
    18   12   14 1   
    19   19   20 1   
    20   19   27 1   
    21   20   21 1   
    22   20   23 1   
    23   20   28 1   
    24   21   22 2   
    25   21   38 1   
    26   23   24 1   
    27   23   25 1   
    28   23   29 1   
    29   24   26 1   
    30   24   30 1   
    31   24   31 1   
    32   25   32 1   
    33   25   33 1   
    34   25   34 1   
    35   26   35 1   
    36   26   36 1   
    37   26   37 1   
    38   38   39 1   
    39   38   46 1   
    40   39   40 1   
    41   39   42 1   
    42   39   47 1   
    43   40   41 2   
    44   40   50 1   
    45   42   43 1   
    46   42   48 1   
    47   42   49 1   
    48   43   44 1   
    49   43   45 1   
    50   50   51 1   
    51   50   54 1   
    52   51   52 1   
    53   51   55 1   
    54   51   56 1   
    55   52   53 2   
    56   52   57 1   
    57   57   58 1   
    58   57   65 1   
    59   58   59 1   
    60   58   61 1   
    61   58   66 1   
    62   59   60 2   
    63   59   69 1   
    64   61   62 1   
    65   61   67 1   
    66   61   68 1   
    67   62   63 1   
    68   62   64 1   
    69   69   70 1   
    70   69   73 1   
    71   70   71 1   
    72   70   74 1   
    73   70   75 1   
    74   71   72 2   
    75   71   76 1   
    76   76   77 1   
    77   76   85 1   
    78   77   78 1   
    79   77   80 1   
    80   77   86 1   
    81   78   79 2   
    82   78   93 1   
    83   80   81 1   
    84   80   87 1   
    85   80   88 1   
    86   81   82 1   
    87   81   89 1   
    88   81   90 1   
    89   82   83 1   
    90   82   84 2   
    91   83   91 1   
    92   83   92 1   
    93   93   94 1   
    94   93  100 1   
    95   94   95 1   
    96   94   97 1   
    97   94  101 1   
    98   95   96 2   
    99   95  109 1   
   100   97   98 1   
   101   97   99 1   
   102   97  102 1   
   103   98  103 1   
   104   98  104 1   
   105   98  105 1   
   106   99  106 1   
   107   99  107 1   
   108   99  108 1   
   109  109  110 1   
   110  109  117 1   
   111  110  111 1   
   112  110  113 1   
   113  110  118 1   
   114  111  112 2   
   115  111  123 1   
   116  113  114 1   
   117  113  119 1   
   118  113  120 1   
   119  114  115 1   
   120  114  116 2   
   121  115  121 1   
   122  115  122 1   
   123  123  124 1   
   124  123  135 1   
   125  124  125 1   
   126  124  127 1   
   127  124  136 1   
   128  125  126 2   
   129  125  144 1   
   130  127  128 1   
   131  127  137 1   
   132  127  138 1   
   133  128  129 ar  
   134  128  130 ar  
   135  129  131 ar  
   136  129  139 1   
   137  130  132 ar  
   138  130  140 1   
   139  131  133 ar  
   140  131  141 1   
   141  132  133 ar  
   142  132  142 1   
   143  133  134 1   
   144  134  143 1   
   145  144  145 1   
   146  144  153 1   
   147  145  146 1   
   148  145  148 1   
   149  145  154 1   
   150  146  147 2   
   151  146  159 1   
   152  148  149 1   
   153  148  155 1   
   154  148  156 1   
   155  149  150 1   
   156  149  157 1   
   157  149  158 1   
   158  150  151 1   
   159  150  152 1   
   160  159  160 1   
   161  159  168 1   
   162  160  161 1   
   163  160  163 1   
   164  160  169 1   
   165  161  162 2   
   166  161  174 1   
   167  163  164 1   
   168  163  170 1   
   169  163  171 1   
   170  164  165 1   
   171  164  172 1   
   172  164  173 1   
   173  165  166 1   
   174  165  167 1   
   175  174  175 1   
   176  174  179 1   
   177  175  176 1   
   178  175  177 1   
   179  175  178 1   
   180  181  182 1   
   181  181  183 1   
@<TRIPOS>SUBSTRUCTURE
     1 MOL         1 TEMP              0 ****  ****    0 ROOT
