@<TRIPOS>MOLECULE
MOL
  189   185     1     0     0
SMALL
resp


@<TRIPOS>ATOM
      1 C1          0.0290    2.5820    5.5030 c3        1 MOL     -0.314214
      2 C2         -0.2410    2.1440    4.0710 c         1 MOL      0.683811
      3 O1          0.5730    2.3780    3.0920 o         1 MOL     -0.663795
      4 H1         -0.0010    3.6700    5.5610 hc        1 MOL      0.084442
      5 H2         -0.7310    2.1620    6.1620 hc        1 MOL      0.084442
      6 H3          1.0130    2.2300    5.8130 hc        1 MOL      0.084442
      7 N1         -1.3360    1.4630    3.8100 n         1 MOL     -0.420197
      8 C3         -2.0090    1.3570    2.5150 c3        1 MOL     -0.008886
      9 C4         -2.5000    2.7290    2.1120 c         1 MOL      0.416510
     10 O2         -3.4540    3.2480    2.7310 o         1 MOL     -0.529459
     11 C5         -3.2160    0.4150    2.7300 c3        1 MOL     -0.393505
     12 C6         -4.1570    0.2880    1.4510 c         1 MOL      0.752049
     13 O3         -3.7030    0.2780    0.2270 o         1 MOL     -0.604955
     14 O4         -5.3950    0.1120    1.7710 o         1 MOL     -0.604955
     15 H4         -1.9240    1.3100    4.6090 hn        1 MOL      0.304864
     16 H5         -1.3370    0.8490    1.8210 h1        1 MOL      0.026737
     17 H6         -3.7620    0.7630    3.6080 hc        1 MOL      0.105738
     18 H7         -2.8290   -0.5680    2.9720 hc        1 MOL      0.105738
     19 N2         -1.8260    3.3220    1.1760 n         1 MOL      0.017219
     20 C7         -1.9740    4.7490    0.9360 c3        1 MOL     -0.380519
     21 C8         -2.9550    5.0810   -0.1970 c         1 MOL      0.689910
     22 O5         -3.2670    6.2390   -0.5730 o         1 MOL     -0.632366
     23 C9         -0.5300    5.2660    0.8290 c3        1 MOL      0.245672
     24 C10        -0.4210    6.7540    0.7930 c3        1 MOL     -0.008683
     25 C11         1.0150    7.2650    0.9080 c3        1 MOL     -0.107218
     26 C12         1.1540    8.7750    1.2180 c3        1 MOL     -0.059629
     27 N3          1.0550    9.5470   -0.0590 n4        1 MOL     -0.422663
     28 H8         -1.1300    2.7850    0.6560 hn        1 MOL      0.147896
     29 H9         -2.4790    5.3170    1.7190 h1        1 MOL      0.120162
     30 H10         0.0790    4.8870    0.0010 hc        1 MOL      0.013950
     31 H11        -0.0040    4.9530    1.7270 hc        1 MOL      0.013950
     32 H12        -0.9490    7.1900    1.6470 hc        1 MOL      0.000055
     33 H13        -0.8450    7.0950   -0.1500 hc        1 MOL      0.000055
     34 H14         1.5610    6.9180    0.0300 hc        1 MOL      0.038298
     35 H15         1.4900    6.7530    1.7470 hc        1 MOL      0.038298
     36 H16         2.0720    9.0350    1.7580 hx        1 MOL      0.138694
     37 H17         0.2840    9.0000    1.8230 hx        1 MOL      0.138694
     38 H18         1.7540    9.1560   -0.6730 hn        1 MOL      0.347979
     39 H19         0.2150    9.2400   -0.5190 hn        1 MOL      0.347979
     40 H20         0.8450   10.5280    0.0190 hn        1 MOL      0.347979
     41 N4         -3.5710    4.0860   -0.8150 n         1 MOL     -0.472405
     42 C13        -4.2930    4.2010   -2.0410 c3        1 MOL      0.065474
     43 C14        -5.5760    3.4090   -2.0140 c         1 MOL      0.564145
     44 O6         -6.5130    3.8230   -2.7470 o         1 MOL     -0.569020
     45 C15        -3.3870    3.7300   -3.2020 c3        1 MOL     -0.461562
     46 C16        -2.5400    2.5340   -2.8950 c         1 MOL      0.914134
     47 O7         -1.6420    2.2150   -3.7120 o         1 MOL     -0.758526
     48 O8         -2.6910    1.8440   -1.8380 o         1 MOL     -0.758526
     49 H21        -3.3050    3.1620   -0.5040 hn        1 MOL      0.241533
     50 H22        -4.5940    5.2230   -2.2720 h1        1 MOL      0.115464
     51 H23        -2.7510    4.6010   -3.3580 hc        1 MOL      0.120158
     52 H24        -3.9980    3.4720   -4.0660 hc        1 MOL      0.120158
     53 N5         -5.7950    2.5630   -0.9890 n         1 MOL     -0.316947
     54 C17        -7.1080    1.9760   -0.6550 c3        1 MOL     -0.018165
     55 C18        -7.4420    0.6800   -1.3610 c         1 MOL      0.450971
     56 O9         -8.4700    0.5370   -2.1110 o         1 MOL     -0.559506
     57 H25        -4.9960    2.2790   -0.4440 hn        1 MOL      0.225883
     58 H26        -7.8920    2.7320   -0.7180 h1        1 MOL      0.062070
     59 H27        -7.1360    1.6920    0.3960 h1        1 MOL      0.062070
     60 N6         -6.5440   -0.2930   -1.2550 n         1 MOL     -0.133274
     61 C19        -6.7580   -1.7430   -1.6280 c3        1 MOL     -0.179142
     62 C20        -6.7450   -2.7840   -0.5310 c         1 MOL      0.485062
     63 O10        -6.8230   -3.9390   -0.7810 o         1 MOL     -0.506730
     64 C21        -5.8100   -2.1000   -2.8130 c3        1 MOL     -0.016378
     65 C22        -4.3630   -1.8570   -2.4420 c         1 MOL      0.686859
     66 O11        -3.6620   -1.1520   -3.1580 o         1 MOL     -0.716579
     67 O12        -3.9660   -2.3940   -1.4490 o         1 MOL     -0.716579
     68 H28        -5.6360   -0.1400   -0.8430 hn        1 MOL      0.070841
     69 H29        -7.7720   -1.8470   -2.0260 h1        1 MOL      0.132660
     70 H30        -6.0450   -1.5630   -3.7260 hc        1 MOL      0.032677
     71 H31        -5.9460   -3.1290   -3.1560 hc        1 MOL      0.032677
     72 N7         -6.5870   -2.3500    0.7680 n         1 MOL     -0.252634
     73 C23        -6.5350   -3.1650    1.9730 c3        1 MOL     -0.180915
     74 C24        -5.2690   -3.9390    1.9990 c         1 MOL      0.545276
     75 O13        -5.1740   -4.8590    2.7840 o         1 MOL     -0.591969
     76 H32        -6.4590   -1.3610    0.9270 hn        1 MOL      0.192562
     77 H33        -7.4780   -3.7110    1.9520 h1        1 MOL      0.112433
     78 H34        -6.4800   -2.4980    2.8350 h1        1 MOL      0.112433
     79 N8         -4.2690   -3.5850    1.2160 n         1 MOL     -0.026167
     80 C25        -3.0300   -4.3190    1.1320 c3        1 MOL     -0.147416
     81 C26        -1.8410   -3.3610    0.9850 c         1 MOL      0.451680
     82 O14        -1.8930   -2.1570    0.8120 o         1 MOL     -0.525434
     83 C27        -3.0350   -5.4210    0.0240 c3        1 MOL      0.427498
     84 C28        -4.0890   -6.4880    0.3130 c3        1 MOL     -0.324649
     85 O15        -3.2900   -4.8550   -1.3140 oh        1 MOL     -0.707103
     86 H35        -4.3970   -2.7910    0.5980 hn        1 MOL     -0.027740
     87 H36        -2.8090   -4.8470    2.0630 h1        1 MOL      0.072735
     88 H37        -2.0210   -5.8180    0.0050 h1        1 MOL     -0.026950
     89 H38        -3.5970   -3.9470   -1.2270 ho        1 MOL      0.480353
     90 H39        -3.7760   -7.0740    1.1780 hc        1 MOL      0.086464
     91 H40        -5.0690   -6.0950    0.5590 hc        1 MOL      0.086464
     92 H41        -4.1890   -7.2410   -0.4670 hc        1 MOL      0.086464
     93 N9         -0.6620   -3.8760    1.3050 n         1 MOL     -0.429169
     94 C29         0.6400   -3.3010    1.4930 c3        1 MOL      0.060789
     95 C30         1.7080   -3.7860    0.5080 c         1 MOL      0.451873
     96 O16         2.0620   -4.9730    0.5500 o         1 MOL     -0.554175
     97 C31         0.9360   -3.3280    3.0470 c3        1 MOL     -0.046148
     98 C32         0.2440   -2.1860    3.7770 c3        1 MOL      0.068870
     99 C33         2.4800   -3.1870    3.2560 c3        1 MOL     -0.049604
    100 C34         0.5250   -1.8860    5.2260 c3        1 MOL     -0.256380
    101 H42        -0.6570   -4.8610    1.5100 hn        1 MOL      0.264729
    102 H43         0.4630   -2.2340    1.3280 h1        1 MOL      0.114959
    103 H44         0.6600   -4.3000    3.4590 hc        1 MOL      0.039495
    104 H45        -0.8400   -2.2680    3.7280 hc        1 MOL      0.039421
    105 H46         0.4270   -1.2750    3.2030 hc        1 MOL      0.039421
    106 H47         2.9140   -2.2470    2.8980 hc        1 MOL     -0.002892
    107 H48         2.8040   -3.3720    4.2870 hc        1 MOL     -0.002892
    108 H49         2.9390   -3.9990    2.6850 hc        1 MOL     -0.002892
    109 H50         1.4590   -1.3220    5.2080 hc        1 MOL      0.055604
    110 H51        -0.1920   -1.2780    5.7770 hc        1 MOL      0.055604
    111 H52         0.6290   -2.8780    5.6660 hc        1 MOL      0.055604
    112 N10         2.1550   -2.9540   -0.3930 n         1 MOL     -0.118387
    113 C35         3.2260   -3.2650   -1.3230 c3        1 MOL     -0.011994
    114 C36         4.6280   -3.1090   -0.7170 c         1 MOL      0.255332
    115 O17         4.8010   -2.6290    0.3910 o         1 MOL     -0.261965
    116 C37         3.1240   -2.3460   -2.5580 c3        1 MOL     -0.025377
    117 C38         1.8060   -2.4830   -3.3140 c3        1 MOL     -0.152231
    118 O18         3.2090   -1.0100   -2.1870 oh        1 MOL     -0.309555
    119 H53         1.7800   -2.0160   -0.4100 hn        1 MOL      0.138866
    120 H54         3.0830   -4.3110   -1.5620 h1        1 MOL      0.099141
    121 H55         3.9400   -2.5480   -3.2470 h1        1 MOL      0.032143
    122 H56         2.8840   -0.4500   -2.8910 ho        1 MOL      0.299737
    123 H57         1.0400   -2.0840   -2.6570 hc        1 MOL      0.060133
    124 H58         1.7530   -2.0970   -4.3300 hc        1 MOL      0.060133
    125 H59         1.5670   -3.5430   -3.3980 hc        1 MOL      0.060133
    126 N11         5.6950   -3.4310   -1.4760 n         1 MOL     -0.194082
    127 C39         7.0740   -3.1390   -1.1390 c3        1 MOL     -0.179142
    128 C40         7.2650   -1.6880   -0.8070 c         1 MOL      0.474251
    129 O19         7.9180   -1.4300    0.2130 o         1 MOL     -0.517521
    130 C41         8.0380   -3.3840   -2.2660 c3        1 MOL      0.297972
    131 C42         8.2060   -4.9330   -2.5190 c3        1 MOL     -0.441989
    132 O20         7.5040   -2.7310   -3.4110 oh        1 MOL     -0.631478
    133 H60         5.6110   -4.0240   -2.2860 hn        1 MOL      0.239344
    134 H61         7.2330   -3.7610   -0.2550 h1        1 MOL      0.132991
    135 H62         8.9680   -2.9160   -1.9350 h1        1 MOL      0.052188
    136 H63         8.1690   -2.8570   -4.0860 ho        1 MOL      0.414470
    137 H64         9.1070   -5.0210   -3.1120 hc        1 MOL      0.130467
    138 H65         8.3360   -5.4540   -1.5630 hc        1 MOL      0.130467
    139 H66         7.3880   -5.3220   -3.1260 hc        1 MOL      0.130467
    140 N12         6.7490   -0.7560   -1.5770 n         1 MOL     -0.325067
    141 C43         6.8420    0.6710   -1.3240 c3        1 MOL     -0.050342
    142 C44         6.2740    0.9790    0.0470 c         1 MOL      0.439996
    143 O21         6.7640    1.8830    0.7610 o         1 MOL     -0.598182
    144 C45         6.1170    1.4580   -2.5040 c3        1 MOL     -0.380297
    145 C46         6.1030    2.9590   -2.1540 c3        1 MOL      0.168179
    146 C47         7.4960    3.6360   -2.0860 c3        1 MOL      0.015527
    147 C48         7.3430    5.0590   -1.5550 c3        1 MOL     -0.046409
    148 N13         7.2260    4.8800   -0.1050 n4        1 MOL     -0.408540
    149 H67         6.2270   -1.0230   -2.4040 hn        1 MOL      0.259550
    150 H68         7.8650    0.9600   -1.0800 h1        1 MOL      0.101895
    151 H69         5.1450    0.9940   -2.6740 hc        1 MOL      0.133496
    152 H70         6.7140    1.3590   -3.4100 hc        1 MOL      0.133496
    153 H71         5.5960    3.0760   -1.1910 hc        1 MOL     -0.015317
    154 H72         5.4770    3.5460   -2.8270 hc        1 MOL     -0.015317
    155 H73         7.8190    3.5720   -3.1290 hc        1 MOL      0.032719
    156 H74         8.2320    3.0990   -1.4960 hc        1 MOL      0.032719
    157 H75         6.4570    5.5210   -1.9960 hx        1 MOL      0.094658
    158 H76         8.2430    5.6100   -1.8310 hx        1 MOL      0.094658
    159 H77         7.3990    5.7700    0.3500 hn        1 MOL      0.349235
    160 H78         6.3410    4.4240    0.0450 hn        1 MOL      0.349235
    161 H79         7.9850    4.3090    0.2490 hn        1 MOL      0.349235
    162 N14         5.1350    0.3810    0.3510 n         1 MOL      0.016743
    163 C49         4.4090    0.7110    1.5880 c3        1 MOL     -0.330949
    164 C50         4.9740    0.1410    2.8570 c         1 MOL      0.493823
    165 O22         5.0280    0.8450    3.8570 o         1 MOL     -0.550973
    166 C51         2.9380    0.3750    1.2720 c3        1 MOL      0.494084
    167 C52         2.1790    1.0890    0.1470 c3        1 MOL     -0.140808
    168 C53         0.7870    0.5050   -0.1100 c         1 MOL      0.563974
    169 O23         0.5260   -0.6810   -0.3610 o         1 MOL     -0.643999
    170 O24        -0.1270    1.2660   -0.3420 o         1 MOL     -0.643999
    171 H80         4.7540   -0.2560   -0.3320 hn        1 MOL      0.163240
    172 H81         4.3770    1.8020    1.6740 h1        1 MOL      0.075716
    173 H82         2.3600    0.4400    2.1940 hc        1 MOL     -0.064628
    174 H83         2.9100   -0.6800    1.0130 hc        1 MOL     -0.064628
    175 H84         2.9030    1.1840   -0.6600 hc        1 MOL     -0.033889
    176 H85         2.0710    2.0830    0.5820 hc        1 MOL     -0.033889
    177 N15         5.3890   -1.1340    2.8400 n         1 MOL      0.022751
    178 C54         6.1180   -1.8170    3.8130 c3        1 MOL     -0.423289
    179 H86         5.9950   -1.3190    4.7750 h1        1 MOL      0.136444
    180 H87         5.7560   -2.8430    3.8870 h1        1 MOL      0.136444
    181 H88         7.1730   -1.8220    3.5390 h1        1 MOL      0.136444
    182 H89         5.3520   -1.5940    1.9380 hn        1 MOL      0.053947
    183 Ca1        -1.9070   -0.6130   -1.2800 Ca        1 MOL      1.754037
    184 O25        -0.3180   -0.0140   -3.2400 oh        1 MOL     -0.838455
    185 H90        -0.6510    0.8280   -3.5340 ho        1 MOL      0.397764
    186 H91         0.5750   -0.0510   -3.5940 ho        1 MOL      0.397764
    187 O26        -1.3410   -2.8800   -2.4360 oh        1 MOL     -0.838455
    188 H92        -1.8970   -3.5510   -2.0360 ho        1 MOL      0.397764
    189 H93        -1.5610   -2.9060   -3.3660 ho        1 MOL      0.397764
@<TRIPOS>BOND
     1    1    2 1   
     2    1    4 1   
     3    1    5 1   
     4    1    6 1   
     5    2    3 2   
     6    2    7 1   
     7    7    8 1   
     8    7   15 1   
     9    8    9 1   
    10    8   11 1   
    11    8   16 1   
    12    9   10 2   
    13    9   19 1   
    14   11   12 1   
    15   11   17 1   
    16   11   18 1   
    17   12   13 1   
    18   12   14 1   
    19   19   20 1   
    20   19   28 1   
    21   20   21 1   
    22   20   23 1   
    23   20   29 1   
    24   21   22 2   
    25   21   41 1   
    26   23   24 1   
    27   23   30 1   
    28   23   31 1   
    29   24   25 1   
    30   24   32 1   
    31   24   33 1   
    32   25   26 1   
    33   25   34 1   
    34   25   35 1   
    35   26   27 1   
    36   26   36 1   
    37   26   37 1   
    38   27   38 1   
    39   27   39 1   
    40   27   40 1   
    41   41   42 1   
    42   41   49 1   
    43   42   43 1   
    44   42   45 1   
    45   42   50 1   
    46   43   44 2   
    47   43   53 1   
    48   45   46 1   
    49   45   51 1   
    50   45   52 1   
    51   46   47 1   
    52   46   48 1   
    53   53   54 1   
    54   53   57 1   
    55   54   55 1   
    56   54   58 1   
    57   54   59 1   
    58   55   56 2   
    59   55   60 1   
    60   60   61 1   
    61   60   68 1   
    62   61   62 1   
    63   61   64 1   
    64   61   69 1   
    65   62   63 2   
    66   62   72 1   
    67   64   65 1   
    68   64   70 1   
    69   64   71 1   
    70   65   66 1   
    71   65   67 1   
    72   72   73 1   
    73   72   76 1   
    74   73   74 1   
    75   73   77 1   
    76   73   78 1   
    77   74   75 2   
    78   74   79 1   
    79   79   80 1   
    80   79   86 1   
    81   80   81 1   
    82   80   83 1   
    83   80   87 1   
    84   81   82 2   
    85   81   93 1   
    86   83   84 1   
    87   83   85 1   
    88   83   88 1   
    89   84   90 1   
    90   84   91 1   
    91   84   92 1   
    92   85   89 1   
    93   93   94 1   
    94   93  101 1   
    95   94   95 1   
    96   94   97 1   
    97   94  102 1   
    98   95   96 2   
    99   95  112 1   
   100   97   98 1   
   101   97   99 1   
   102   97  103 1   
   103   98  100 1   
   104   98  104 1   
   105   98  105 1   
   106   99  106 1   
   107   99  107 1   
   108   99  108 1   
   109  100  109 1   
   110  100  110 1   
   111  100  111 1   
   112  112  113 1   
   113  112  119 1   
   114  113  114 1   
   115  113  116 1   
   116  113  120 1   
   117  114  115 2   
   118  114  126 1   
   119  116  117 1   
   120  116  118 1   
   121  116  121 1   
   122  117  123 1   
   123  117  124 1   
   124  117  125 1   
   125  118  122 1   
   126  126  127 1   
   127  126  133 1   
   128  127  128 1   
   129  127  130 1   
   130  127  134 1   
   131  128  129 2   
   132  128  140 1   
   133  130  131 1   
   134  130  132 1   
   135  130  135 1   
   136  131  137 1   
   137  131  138 1   
   138  131  139 1   
   139  132  136 1   
   140  140  141 1   
   141  140  149 1   
   142  141  142 1   
   143  141  144 1   
   144  141  150 1   
   145  142  143 2   
   146  142  162 1   
   147  144  145 1   
   148  144  151 1   
   149  144  152 1   
   150  145  146 1   
   151  145  153 1   
   152  145  154 1   
   153  146  147 1   
   154  146  155 1   
   155  146  156 1   
   156  147  148 1   
   157  147  157 1   
   158  147  158 1   
   159  148  159 1   
   160  148  160 1   
   161  148  161 1   
   162  162  163 1   
   163  162  171 1   
   164  163  164 1   
   165  163  166 1   
   166  163  172 1   
   167  164  165 2   
   168  164  177 1   
   169  166  167 1   
   170  166  173 1   
   171  166  174 1   
   172  167  168 1   
   173  167  175 1   
   174  167  176 1   
   175  168  169 1   
   176  168  170 1   
   177  177  178 1   
   178  177  182 1   
   179  178  179 1   
   180  178  180 1   
   181  178  181 1   
   182  184  185 1   
   183  184  186 1   
   184  187  188 1   
   185  187  189 1   
@<TRIPOS>SUBSTRUCTURE
     1 MOL         1 TEMP              0 ****  ****    0 ROOT
