@<TRIPOS>MOLECULE
MOL
  178   175     1     0     0
SMALL
resp


@<TRIPOS>ATOM
      1 C1          0.0140    4.8960    5.2380 c3        1 MOL     -0.274584
      2 C2         -0.2770    4.2780    3.9080 c         1 MOL      0.735145
      3 O1          0.5730    4.3610    3.0060 o         1 MOL     -0.586219
      4 H1          0.9320    5.4790    5.1750 hc        1 MOL      0.064635
      5 H2         -0.8120    5.5480    5.5240 hc        1 MOL      0.064635
      6 H3          0.1330    4.1110    5.9860 hc        1 MOL      0.064635
      7 N1         -1.5020    3.7030    3.6880 n         1 MOL     -0.623969
      8 C3         -1.8610    3.0220    2.3420 c3        1 MOL      0.164143
      9 C4         -2.4120    4.0130    1.3300 c         1 MOL      0.535421
     10 O2         -3.2910    4.7710    1.7470 o         1 MOL     -0.587829
     11 C5         -2.9380    1.9420    2.6730 c3        1 MOL     -0.243327
     12 C6         -3.3580    0.9960    1.5210 c         1 MOL      0.818381
     13 O3         -2.9910    1.1560    0.3570 o         1 MOL     -0.761092
     14 O4         -4.3480    0.2120    1.5980 o         1 MOL     -0.761092
     15 H4         -2.1980    3.6420    4.4180 hn        1 MOL      0.322778
     16 H5         -0.9820    2.5060    1.9500 h1        1 MOL      0.020108
     17 H6         -3.8130    2.4840    3.0400 hc        1 MOL      0.062340
     18 H7         -2.5970    1.2820    3.4640 hc        1 MOL      0.062340
     19 N2         -2.0640    3.9850    0.0160 n         1 MOL     -0.242501
     20 C7         -2.4910    4.9660   -0.9150 c3        1 MOL      0.089464
     21 C8         -3.8340    4.6130   -1.5310 c         1 MOL      0.468810
     22 O5         -4.3480    5.4950   -2.2510 o         1 MOL     -0.567129
     23 C9         -1.4170    4.9520   -2.0080 c3        1 MOL     -0.304334
     24 H8         -1.2860    3.3850   -0.2270 hn        1 MOL      0.164641
     25 H9         -2.5120    5.9870   -0.5390 h1        1 MOL      0.053688
     26 H10        -1.3070    3.9260   -2.3600 hc        1 MOL      0.101102
     27 H11        -1.6410    5.5080   -2.9220 hc        1 MOL      0.101102
     28 H12        -0.4240    5.1130   -1.5800 hc        1 MOL      0.101102
     29 N3         -4.3850    3.4000   -1.4330 n         1 MOL     -0.537720
     30 C10        -5.5430    3.0770   -2.2540 c3        1 MOL      0.379365
     31 C11        -6.6800    2.5590   -1.3130 c         1 MOL      0.393167
     32 O6         -7.8120    2.5650   -1.8000 o         1 MOL     -0.548491
     33 C12        -5.1450    2.1430   -3.3560 c3        1 MOL     -0.276775
     34 C13        -4.3340    0.9740   -2.8970 c         1 MOL      0.749857
     35 O7         -3.0660    1.0650   -2.8510 o         1 MOL     -0.702393
     36 O8         -4.8650   -0.1100   -2.4340 o         1 MOL     -0.702393
     37 H13        -3.9560    2.6530   -0.9080 hn        1 MOL      0.293753
     38 H14        -5.9970    3.9480   -2.7110 h1        1 MOL      0.030126
     39 H15        -4.4980    2.7040   -4.0250 hc        1 MOL      0.056525
     40 H16        -6.0900    1.8570   -3.8210 hc        1 MOL      0.056525
     41 N4         -6.4420    2.2430   -0.0440 n         1 MOL     -0.336880
     42 C14        -7.4940    1.9200    0.9510 c3        1 MOL     -0.192143
     43 C15        -7.9050    0.4600    0.8720 c         1 MOL      0.514471
     44 O9         -8.8380    0.0600    1.5360 o         1 MOL     -0.576169
     45 H17        -5.4660    2.0660    0.1510 hn        1 MOL      0.262837
     46 H18        -8.3380    2.5610    0.6860 h1        1 MOL      0.137446
     47 H19        -7.1760    2.1860    1.9590 h1        1 MOL      0.137446
     48 N5         -7.1890   -0.4010    0.0530 n         1 MOL     -0.196845
     49 C16        -7.6750   -1.7930   -0.1520 c3        1 MOL      0.046478
     50 C17        -7.0030   -2.8170    0.8360 c         1 MOL      0.385422
     51 O10        -7.1290   -4.0710    0.6050 o         1 MOL     -0.536093
     52 C18        -7.4510   -2.3010   -1.6280 c3        1 MOL     -0.303820
     53 C19        -8.2410   -1.5230   -2.6430 c         1 MOL      0.728631
     54 N6         -7.7980   -0.3950   -3.0930 n         1 MOL     -0.820545
     55 O11        -9.2790   -1.9220   -3.0590 o         1 MOL     -0.632400
     56 H20        -6.4490   -0.1290   -0.5760 hn        1 MOL      0.208801
     57 H21        -8.7380   -1.8870    0.0760 h1        1 MOL      0.100367
     58 H22        -7.7780   -3.3320   -1.7130 hc        1 MOL      0.102927
     59 H23        -6.4190   -2.1150   -1.9370 hc        1 MOL      0.102927
     60 H24        -6.8510   -0.1020   -2.9430 hn        1 MOL      0.361698
     61 H25        -8.4090    0.1020   -3.7330 hn        1 MOL      0.361698
     62 N7         -6.2540   -2.3690    1.8380 n         1 MOL     -0.246985
     63 C20        -5.8170   -3.2640    2.8780 c3        1 MOL     -0.110673
     64 C21        -4.4630   -3.9750    2.6780 c         1 MOL      0.474167
     65 O12        -4.2300   -4.9860    3.2250 o         1 MOL     -0.547146
     66 H26        -6.0230   -1.3980    1.9830 hn        1 MOL      0.252124
     67 H27        -6.5230   -4.0840    3.0260 h1        1 MOL      0.090466
     68 H28        -5.9460   -2.8160    3.8700 h1        1 MOL      0.090466
     69 N8         -3.6770   -3.5480    1.6830 n         1 MOL     -0.255583
     70 C22        -2.4370   -4.2020    1.2240 c3        1 MOL     -0.058472
     71 C23        -1.3650   -3.0920    1.1360 c         1 MOL      0.513117
     72 O13        -1.5190   -2.0590    0.5060 o         1 MOL     -0.586562
     73 C24        -2.5120   -4.9550   -0.0340 c3        1 MOL      0.451715
     74 C25        -3.3020   -6.2330    0.1360 c3        1 MOL     -0.567115
     75 O14        -3.0810   -4.1820   -1.0930 oh        1 MOL     -0.594250
     76 H29        -4.0920   -2.8320    1.1040 hn        1 MOL      0.192614
     77 H30        -2.1480   -4.9360    1.9860 h1        1 MOL      0.068733
     78 H31        -1.5140   -5.3220   -0.2640 h1        1 MOL      0.019863
     79 H32        -3.9360   -3.8930   -0.7730 ho        1 MOL      0.395874
     80 H33        -3.0130   -6.7970    1.0210 hc        1 MOL      0.143399
     81 H34        -4.3730   -6.0210    0.2550 hc        1 MOL      0.143399
     82 H35        -3.2720   -6.8190   -0.7740 hc        1 MOL      0.143399
     83 N9         -0.2090   -3.3720    1.7310 n         1 MOL     -0.485684
     84 C26         1.0390   -2.5360    1.8090 c3        1 MOL      0.191561
     85 C27         2.1180   -2.9220    0.7460 c         1 MOL      0.361568
     86 O15         2.5670   -4.0810    0.6640 o         1 MOL     -0.589945
     87 C28         1.5520   -2.5910    3.2910 c3        1 MOL      0.030769
     88 C29         0.5680   -1.6660    4.0730 c3        1 MOL      0.171681
     89 C30         3.0160   -2.1660    3.4000 c3        1 MOL     -0.173233
     90 C31         0.7020   -0.0830    4.0480 c3        1 MOL     -0.028873
     91 H36        -0.1900   -4.2570    2.2090 hn        1 MOL      0.258802
     92 H37         0.8140   -1.4850    1.6470 h1        1 MOL      0.118008
     93 H38         1.3880   -3.6120    3.6570 hc        1 MOL      0.000460
     94 H39         0.9200   -1.8870    5.0890 hc        1 MOL     -0.061330
     95 H40        -0.4490   -2.0410    4.1050 hc        1 MOL     -0.061330
     96 H41         3.6420   -2.9300    2.9420 hc        1 MOL      0.034972
     97 H42         3.1140   -1.2330    2.8400 hc        1 MOL      0.034972
     98 H43         3.2920   -2.1710    4.4590 hc        1 MOL      0.034972
     99 H44         0.2400    0.2920    3.1390 hc        1 MOL     -0.003746
    100 H45         0.1310    0.2850    4.8960 hc        1 MOL     -0.003746
    101 H46         1.7550    0.1820    4.1560 hc        1 MOL     -0.003746
    102 N10         2.5740   -1.9880   -0.1000 n         1 MOL     -0.005308
    103 C32         3.6590   -2.1270   -1.1580 c3        1 MOL      0.220141
    104 C33         5.0810   -1.6760   -0.6040 c         1 MOL      0.169482
    105 O16         5.1270   -0.9600    0.3890 o         1 MOL     -0.275403
    106 C34         3.1730   -1.1520   -2.2840 c3        1 MOL     -0.242239
    107 C35         1.8250   -1.5240   -2.8450 c         1 MOL      0.654159
    108 O17         0.8060   -1.2540   -2.2270 o         1 MOL     -0.676725
    109 O18         1.7580   -2.1550   -3.9140 o         1 MOL     -0.676725
    110 H47         2.0640   -1.1090   -0.0930 hn        1 MOL      0.002132
    111 H48         3.7250   -3.1540   -1.5370 h1        1 MOL      0.038828
    112 H49         3.8920   -1.0550   -3.0980 hc        1 MOL      0.042681
    113 H50         3.0320   -0.2080   -1.7680 hc        1 MOL      0.042681
    114 N11         6.2030   -2.0750   -1.2580 n         1 MOL     -0.444244
    115 C36         7.5950   -1.5690   -0.8650 c3        1 MOL      0.231969
    116 C37         7.7010   -0.0050   -0.7690 c         1 MOL      0.395513
    117 O19         8.1520    0.4490    0.2810 o         1 MOL     -0.531211
    118 C38         8.6740   -2.1280   -1.8670 c3        1 MOL     -0.104747
    119 C39        10.1410   -1.9040   -1.4420 ca        1 MOL      0.113540
    120 C40        10.5710   -2.5470   -0.2730 ca        1 MOL     -0.225210
    121 C41        10.9440   -0.9660   -2.1140 ca        1 MOL     -0.225210
    122 C42        11.8620   -2.2760    0.2280 ca        1 MOL     -0.035295
    123 C43        12.1900   -0.6540   -1.5390 ca        1 MOL     -0.035295
    124 C44        12.6540   -1.3610   -0.4000 ca        1 MOL     -0.176749
    125 H51         6.0460   -2.7580   -1.9850 hn        1 MOL      0.288426
    126 H52         7.7770   -2.0130    0.1110 h1        1 MOL      0.063322
    127 H53         8.4670   -1.7080   -2.8490 hc        1 MOL      0.027887
    128 H54         8.4630   -3.2010   -1.9220 hc        1 MOL      0.027887
    129 H55         9.9750   -3.2910    0.2280 ha        1 MOL      0.135733
    130 H56        10.5900   -0.3790   -2.9520 ha        1 MOL      0.135733
    131 H57        12.1930   -2.7830    1.1200 ha        1 MOL      0.096801
    132 H58        12.7390    0.1850   -1.9550 ha        1 MOL      0.096801
    133 H59        13.6120   -1.1170    0.0540 ha        1 MOL      0.109040
    134 N12         7.0820    0.8070   -1.6150 n         1 MOL     -0.083071
    135 C45         7.1580    2.2930   -1.3330 c3        1 MOL      0.005381
    136 C46         6.2680    2.6810   -0.1660 c         1 MOL      0.349236
    137 O20         6.5980    3.7010    0.4080 o         1 MOL     -0.505652
    138 C47         6.7490    2.9400   -2.6890 c3        1 MOL     -0.092415
    139 C48         5.9340    1.8460   -3.4040 c3        1 MOL     -0.020438
    140 C49         6.7090    0.5780   -3.0080 c3        1 MOL      0.021588
    141 H60         8.1870    2.6200   -1.1570 h1        1 MOL      0.081840
    142 H61         6.1640    3.8370   -2.5080 hc        1 MOL      0.045919
    143 H62         7.6030    3.2170   -3.3080 hc        1 MOL      0.045919
    144 H63         4.9040    1.9160   -3.0510 hc        1 MOL      0.026405
    145 H64         6.0040    1.9470   -4.4880 hc        1 MOL      0.026405
    146 H65         6.1030   -0.3150   -3.1680 h1        1 MOL      0.016829
    147 H66         7.6120    0.4850   -3.6010 h1        1 MOL      0.016829
    148 N13         5.1630    1.9750    0.2000 n         1 MOL     -0.106376
    149 C50         4.3630    2.3690    1.4440 c3        1 MOL     -0.214212
    150 C51         5.1700    1.8490    2.7030 c         1 MOL      0.492971
    151 O21         5.2100    2.5300    3.7320 o         1 MOL     -0.561934
    152 C52         2.9540    1.7260    1.2940 c3        1 MOL      0.236493
    153 C53         2.0430    2.3540    0.2150 c3        1 MOL      0.102733
    154 C54         0.7670    1.5330   -0.2220 c         1 MOL      0.734021
    155 O22         0.5140    0.3890    0.2490 o         1 MOL     -0.784391
    156 O23        -0.0770    1.9950   -1.0970 o         1 MOL     -0.784391
    157 H67         4.8220    1.2140   -0.3560 hn        1 MOL      0.162328
    158 H68         4.3140    3.4550    1.4080 h1        1 MOL      0.130027
    159 H69         2.3400    1.7810    2.1880 hc        1 MOL     -0.057769
    160 H70         3.1850    0.6670    1.1670 hc        1 MOL     -0.057769
    161 H71         2.6990    2.4750   -0.6480 hc        1 MOL     -0.043207
    162 H72         1.8170    3.3750    0.5020 hc        1 MOL     -0.043207
    163 N14         5.9620    0.7780    2.6080 n         1 MOL     -0.016250
    164 C55         6.8800    0.3780    3.6410 c3        1 MOL     -0.345765
    165 H73         7.5980    1.1780    3.8190 h1        1 MOL      0.113413
    166 H74         6.3280    0.1750    4.5590 h1        1 MOL      0.113413
    167 H75         7.4100   -0.5220    3.3290 h1        1 MOL      0.113413
    168 H76         5.7320    0.1330    1.8580 hn        1 MOL      0.064518
    169 Ca1        -1.5030   -0.1670   -1.2290 Ca        1 MOL      1.767861
    170 O24        -4.1750   -1.4800   -0.3960 oh        1 MOL     -0.784833
    171 H77        -4.5650   -1.0100   -1.1310 ho        1 MOL      0.372755
    172 H78        -4.1460   -0.8270    0.3090 ho        1 MOL      0.372755
    173 O25        -1.9090   -2.2740   -2.7260 oh        1 MOL     -0.784833
    174 H79        -1.4770   -2.5570   -3.5320 ho        1 MOL      0.372755
    175 H80        -2.0870   -3.0790   -2.2500 ho        1 MOL      0.372755
    176 O26        -0.5080    0.1220   -4.0380 oh        1 MOL     -0.784833
    177 H81         0.1160   -0.4820   -3.6240 ho        1 MOL      0.372755
    178 H82        -0.0060    0.5360   -4.7380 ho        1 MOL      0.372755
@<TRIPOS>BOND
     1    1    2 1   
     2    1    4 1   
     3    1    5 1   
     4    1    6 1   
     5    2    3 2   
     6    2    7 1   
     7    7    8 1   
     8    7   15 1   
     9    8    9 1   
    10    8   11 1   
    11    8   16 1   
    12    9   10 2   
    13    9   19 1   
    14   11   12 1   
    15   11   17 1   
    16   11   18 1   
    17   12   13 1   
    18   12   14 1   
    19   19   20 1   
    20   19   24 1   
    21   20   21 1   
    22   20   23 1   
    23   20   25 1   
    24   21   22 2   
    25   21   29 1   
    26   23   26 1   
    27   23   27 1   
    28   23   28 1   
    29   29   30 1   
    30   29   37 1   
    31   30   31 1   
    32   30   33 1   
    33   30   38 1   
    34   31   32 2   
    35   31   41 1   
    36   33   34 1   
    37   33   39 1   
    38   33   40 1   
    39   34   35 1   
    40   34   36 1   
    41   41   42 1   
    42   41   45 1   
    43   42   43 1   
    44   42   46 1   
    45   42   47 1   
    46   43   44 2   
    47   43   48 1   
    48   48   49 1   
    49   48   56 1   
    50   49   50 1   
    51   49   52 1   
    52   49   57 1   
    53   50   51 2   
    54   50   62 1   
    55   52   53 1   
    56   52   58 1   
    57   52   59 1   
    58   53   54 1   
    59   53   55 2   
    60   54   60 1   
    61   54   61 1   
    62   62   63 1   
    63   62   66 1   
    64   63   64 1   
    65   63   67 1   
    66   63   68 1   
    67   64   65 2   
    68   64   69 1   
    69   69   70 1   
    70   69   76 1   
    71   70   71 1   
    72   70   73 1   
    73   70   77 1   
    74   71   72 2   
    75   71   83 1   
    76   73   74 1   
    77   73   75 1   
    78   73   78 1   
    79   74   80 1   
    80   74   81 1   
    81   74   82 1   
    82   75   79 1   
    83   83   84 1   
    84   83   91 1   
    85   84   85 1   
    86   84   87 1   
    87   84   92 1   
    88   85   86 2   
    89   85  102 1   
    90   87   88 1   
    91   87   89 1   
    92   87   93 1   
    93   88   90 1   
    94   88   94 1   
    95   88   95 1   
    96   89   96 1   
    97   89   97 1   
    98   89   98 1   
    99   90   99 1   
   100   90  100 1   
   101   90  101 1   
   102  102  103 1   
   103  102  110 1   
   104  103  104 1   
   105  103  106 1   
   106  103  111 1   
   107  104  105 2   
   108  104  114 1   
   109  106  107 1   
   110  106  112 1   
   111  106  113 1   
   112  107  108 1   
   113  107  109 1   
   114  114  115 1   
   115  114  125 1   
   116  115  116 1   
   117  115  118 1   
   118  115  126 1   
   119  116  117 2   
   120  116  134 1   
   121  118  119 1   
   122  118  127 1   
   123  118  128 1   
   124  119  120 ar  
   125  119  121 ar  
   126  120  122 ar  
   127  120  129 1   
   128  121  123 ar  
   129  121  130 1   
   130  122  124 ar  
   131  122  131 1   
   132  123  124 ar  
   133  123  132 1   
   134  124  133 1   
   135  134  135 1   
   136  134  140 1   
   137  135  136 1   
   138  135  138 1   
   139  135  141 1   
   140  136  137 2   
   141  136  148 1   
   142  138  139 1   
   143  138  142 1   
   144  138  143 1   
   145  139  140 1   
   146  139  144 1   
   147  139  145 1   
   148  140  146 1   
   149  140  147 1   
   150  148  149 1   
   151  148  157 1   
   152  149  150 1   
   153  149  152 1   
   154  149  158 1   
   155  150  151 2   
   156  150  163 1   
   157  152  153 1   
   158  152  159 1   
   159  152  160 1   
   160  153  154 1   
   161  153  161 1   
   162  153  162 1   
   163  154  155 1   
   164  154  156 1   
   165  163  164 1   
   166  163  168 1   
   167  164  165 1   
   168  164  166 1   
   169  164  167 1   
   170  170  171 1   
   171  170  172 1   
   172  173  174 1   
   173  173  175 1   
   174  176  177 1   
   175  176  178 1   
@<TRIPOS>SUBSTRUCTURE
     1 MOL         1 TEMP              0 ****  ****    0 ROOT
