@<TRIPOS>MOLECULE
MOL
  186   183     1     0     0
SMALL
resp


@<TRIPOS>ATOM
      1 C1          1.2170   -2.8770    6.1920 c3        1 MOL     -0.352506
      2 C2          1.5120   -2.6030    4.7570 c         1 MOL      0.848108
      3 O1          0.6520   -2.8790    3.9240 o         1 MOL     -0.640382
      4 H1          1.2570   -1.9450    6.7560 hc        1 MOL      0.083022
      5 H2          0.2220   -3.3130    6.2820 hc        1 MOL      0.083022
      6 H3          1.9560   -3.5740    6.5890 hc        1 MOL      0.083022
      7 N1          2.7060   -2.1140    4.3650 n         1 MOL     -0.830468
      8 C3          3.1910   -1.8450    2.9190 c3        1 MOL      0.547465
      9 C4          3.7680   -3.1460    2.3310 c         1 MOL      0.430634
     10 O2          4.5140   -3.9050    2.9880 o         1 MOL     -0.592805
     11 C5          4.2320   -0.7270    2.8890 c3        1 MOL     -0.408401
     12 C6          4.6270   -0.3150    1.4750 c         1 MOL      0.785728
     13 O3          5.7830    0.2000    1.3800 o         1 MOL     -0.672876
     14 O4          3.9370   -0.5940    0.4860 o         1 MOL     -0.672876
     15 H4          3.3260   -1.7920    5.0960 hn        1 MOL      0.339612
     16 H5          2.3780   -1.5700    2.2470 h1        1 MOL     -0.042762
     17 H6          5.1310   -1.1590    3.3070 hc        1 MOL      0.074706
     18 H7          3.7860    0.1270    3.3930 hc        1 MOL      0.074706
     19 N2          3.2180   -3.5340    1.1860 n         1 MOL     -0.056845
     20 C7          3.2980   -4.8340    0.4950 c3        1 MOL     -0.140841
     21 C8          3.9830   -4.8050   -0.8190 c         1 MOL      0.487852
     22 O5          4.8720   -5.5730   -1.0470 o         1 MOL     -0.536955
     23 C9          1.8710   -5.5570    0.4490 c3        1 MOL      0.249424
     24 C10         1.2570   -5.6560    1.8400 c3        1 MOL      0.141903
     25 C11         2.1720   -6.9770   -0.0880 c3        1 MOL     -0.371665
     26 C12        -0.0700   -6.4270    1.8750 c3        1 MOL     -0.186763
     27 H8          2.6260   -2.9420    0.6340 hn        1 MOL      0.028146
     28 H9          3.9430   -5.4640    1.1040 h1        1 MOL      0.089130
     29 H10         1.1620   -5.0700   -0.2120 hc        1 MOL     -0.015886
     30 H11         1.0610   -4.6300    2.1650 hc        1 MOL     -0.031353
     31 H12         1.9350   -6.1440    2.5350 hc        1 MOL     -0.031353
     32 H13         2.5010   -6.9270   -1.1260 hc        1 MOL      0.072918
     33 H14         2.9310   -7.4330    0.5560 hc        1 MOL      0.072918
     34 H15         1.2230   -7.5160   -0.0820 hc        1 MOL      0.072918
     35 H16        -0.3920   -6.6120    2.9030 hc        1 MOL      0.033161
     36 H17        -0.8280   -5.7510    1.4980 hc        1 MOL      0.033161
     37 H18        -0.2030   -7.4050    1.4050 hc        1 MOL      0.033161
     38 N3          3.6990   -3.8280   -1.7310 n         1 MOL     -0.377415
     39 C13         4.4750   -3.6470   -2.9810 c3        1 MOL      0.133197
     40 C14         5.8680   -3.0680   -2.5760 c         1 MOL      0.502521
     41 O6          6.8440   -3.4330   -3.1700 o         1 MOL     -0.563162
     42 C15         3.7060   -2.9630   -4.1330 c3        1 MOL     -0.233833
     43 C16         3.3670   -1.5440   -3.8220 c         1 MOL      0.746923
     44 O7          2.7140   -0.8360   -4.6110 o         1 MOL     -0.691780
     45 O8          3.5420   -1.1040   -2.6030 o         1 MOL     -0.691780
     46 H19         2.8730   -3.2690   -1.5790 hn        1 MOL      0.252592
     47 H20         4.6820   -4.6420   -3.3690 h1        1 MOL      0.033978
     48 H21         2.7940   -3.5020   -4.3550 hc        1 MOL      0.060755
     49 H22         4.2730   -2.9090   -5.0670 hc        1 MOL      0.060755
     50 N4          5.9060   -2.1360   -1.5090 n         1 MOL     -0.151314
     51 C17         7.1750   -1.6270   -0.9200 c3        1 MOL     -0.139545
     52 C18         7.5730   -0.2160   -1.2390 c         1 MOL      0.566070
     53 O9          8.7940    0.0830   -1.0540 o         1 MOL     -0.630218
     54 H23         5.0460   -1.9150   -1.0370 hn        1 MOL      0.084024
     55 H24         8.0080   -2.3070   -1.1340 h1        1 MOL      0.088973
     56 H25         7.1020   -1.7010    0.1610 h1        1 MOL      0.088973
     57 N5          6.6650    0.6500   -1.6870 n         1 MOL     -0.322448
     58 C19         6.9360    2.1190   -2.0140 c3        1 MOL      0.098348
     59 C20         6.8390    3.0970   -0.8670 c         1 MOL      0.416150
     60 O10         6.8700    4.3160   -1.0070 o         1 MOL     -0.582535
     61 C21         5.8820    2.4920   -3.1650 c3        1 MOL     -0.350382
     62 C22         4.3820    2.5200   -2.7220 c         1 MOL      0.860353
     63 O11         3.4870    2.9520   -3.4940 o         1 MOL     -0.737912
     64 O12         4.0180    2.0990   -1.6220 o         1 MOL     -0.737912
     65 H26         5.7090    0.3400   -1.8020 hn        1 MOL      0.108356
     66 H27         7.9200    2.2360   -2.4700 h1        1 MOL      0.078360
     67 H28         6.0080    1.8120   -4.0080 hc        1 MOL      0.091893
     68 H29         6.1180    3.4950   -3.5250 hc        1 MOL      0.091893
     69 N6          6.6350    2.6120    0.3360 n         1 MOL     -0.245142
     70 C23         6.6800    3.4340    1.6210 c3        1 MOL     -0.174500
     71 C24         5.3140    3.9260    1.9980 c         1 MOL      0.459457
     72 O13         5.2040    4.5460    3.0790 o         1 MOL     -0.613969
     73 H30         6.4640    1.6220    0.4420 hn        1 MOL      0.251955
     74 H31         7.3120    4.3080    1.4420 h1        1 MOL      0.121595
     75 H32         7.0910    2.8760    2.4540 h1        1 MOL      0.121595
     76 N7          4.2720    3.8950    1.2270 n         1 MOL     -0.136464
     77 C25         2.8440    4.1550    1.6460 c3        1 MOL      0.078960
     78 C26         1.9380    2.9760    1.6480 c         1 MOL      0.502116
     79 O14         2.1870    2.0270    0.8850 o         1 MOL     -0.685276
     80 C27         2.2000    5.1330    0.7580 c3        1 MOL      0.096463
     81 C28         2.7110    6.5580    0.8750 c3        1 MOL     -0.299501
     82 C29         1.7230    7.5520    0.1910 c         1 MOL      0.701951
     83 N8          1.6180    7.5490   -1.1190 n         1 MOL     -0.845483
     84 O15         1.0020    8.3170    0.7760 o         1 MOL     -0.588801
     85 H33         4.3970    3.3950    0.3600 hn        1 MOL      0.197079
     86 H34         2.8330    4.6260    2.6370 h1        1 MOL      0.027859
     87 H35         1.1540    5.1180    1.0290 hc        1 MOL     -0.003232
     88 H36         2.2610    4.7540   -0.2560 hc        1 MOL     -0.003232
     89 H37         3.6970    6.5240    0.4050 hc        1 MOL      0.079968
     90 H38         2.8970    6.9570    1.8690 hc        1 MOL      0.079968
     91 H39         2.2330    6.9380   -1.6250 hn        1 MOL      0.379553
     92 H40         0.8250    8.0340   -1.5250 hn        1 MOL      0.379553
     93 N9          0.8500    2.9880    2.4570 n         1 MOL     -0.340161
     94 C30        -0.2850    2.0350    2.4660 c3        1 MOL      0.100587
     95 C31        -1.3740    2.5950    1.5970 c         1 MOL      0.312423
     96 O16        -2.0250    3.6390    1.8200 o         1 MOL     -0.543964
     97 C32        -0.8160    1.5910    3.8800 c3        1 MOL      0.030433
     98 C33        -2.0870    0.7880    3.9350 c3        1 MOL     -0.080168
     99 C34         0.2940    0.8360    4.5900 c3        1 MOL     -0.080168
    100 H41         0.8460    3.8200    3.0350 hn        1 MOL      0.235970
    101 H42         0.0560    1.0900    2.0470 h1        1 MOL      0.151838
    102 H43        -1.0430    2.5150    4.4090 hc        1 MOL      0.001388
    103 H44        -1.8760   -0.1370    3.4000 hc        1 MOL      0.007501
    104 H45        -2.4610    0.4800    4.9080 hc        1 MOL      0.007501
    105 H46        -2.9360    1.3510    3.5570 hc        1 MOL      0.007501
    106 H47         0.4110   -0.1560    4.1610 hc        1 MOL      0.007501
    107 H48         1.2510    1.3230    4.4340 hc        1 MOL      0.007501
    108 H49         0.1330    0.7490    5.6600 hc        1 MOL      0.007501
    109 N10        -1.6390    1.9400    0.4790 n         1 MOL     -0.182720
    110 C35        -2.7740    2.2150   -0.3520 c3        1 MOL      0.132952
    111 C36        -4.0620    1.6120    0.2120 c         1 MOL      0.325843
    112 O17        -3.9860    0.7620    1.0660 o         1 MOL     -0.289799
    113 C37        -2.5010    1.6930   -1.7910 c3        1 MOL     -0.404755
    114 C38        -3.6120    1.8140   -2.7780 c         1 MOL      0.711840
    115 N11        -4.1530    2.9460   -3.0160 n         1 MOL     -0.763539
    116 O18        -4.2400    0.8580   -3.2140 o         1 MOL     -0.481506
    117 H50        -1.0880    1.1180    0.2350 hn        1 MOL      0.204741
    118 H51        -3.0350    3.2690   -0.3140 h1        1 MOL      0.016638
    119 H52        -2.2240    0.6400   -1.8230 hc        1 MOL      0.116131
    120 H53        -1.7270    2.3060   -2.2530 hc        1 MOL      0.116131
    121 H54        -3.9130    3.7480   -2.4460 hn        1 MOL      0.347175
    122 H55        -4.9520    3.0240   -3.6160 hn        1 MOL      0.347175
    123 N12        -5.2130    2.0600   -0.2920 n         1 MOL     -0.302450
    124 C39        -6.4990    1.5240    0.1160 c3        1 MOL      0.052688
    125 C40        -6.6270   -0.0750    0.0220 c         1 MOL      0.642850
    126 O19        -7.1140   -0.7600    0.9360 o         1 MOL     -0.577625
    127 C41        -7.6410    2.1680   -0.7620 c3        1 MOL     -0.159652
    128 C42        -9.1240    1.8820   -0.3340 ca        1 MOL      0.083908
    129 C43        -9.7370    2.5750    0.7050 ca        1 MOL     -0.235568
    130 C44        -9.8910    0.9810   -1.0920 ca        1 MOL     -0.235568
    131 C45       -11.0710    2.2460    1.0820 ca        1 MOL     -0.139578
    132 C46       -11.2280    0.7350   -0.7730 ca        1 MOL     -0.139578
    133 C47       -11.8540    1.3530    0.3030 ca        1 MOL      0.243068
    134 O20       -13.1750    1.0680    0.6110 oh        1 MOL     -0.534435
    135 H56        -5.1520    2.7950   -0.9790 hn        1 MOL      0.193104
    136 H57        -6.5830    1.7240    1.1820 h1        1 MOL      0.040253
    137 H58        -7.5740    1.9670   -1.8340 hc        1 MOL      0.074860
    138 H59        -7.5200    3.2440   -0.7080 hc        1 MOL      0.074860
    139 H60        -9.1750    3.2750    1.3090 ha        1 MOL      0.151562
    140 H61        -9.4080    0.4150   -1.8720 ha        1 MOL      0.151562
    141 H62       -11.4830    2.7670    1.9400 ha        1 MOL      0.112772
    142 H63       -11.7750    0.0820   -1.4380 ha        1 MOL      0.112772
    143 H64       -13.5830    0.4290    0.0220 ho        1 MOL      0.390057
    144 N13        -5.9930   -0.6490   -0.9960 n         1 MOL     -0.344434
    145 C48        -5.9780   -2.1250   -1.2130 c3        1 MOL     -0.325484
    146 C49        -5.0240   -2.8500   -0.2730 c         1 MOL      0.535687
    147 O21        -4.9700   -4.0220   -0.2490 o         1 MOL     -0.534057
    148 C50        -5.5650   -2.2940   -2.7280 c3        1 MOL      0.209199
    149 C51        -6.4630   -1.6900   -3.7800 c3        1 MOL     -0.185605
    150 C52        -6.0470   -2.0810   -5.2440 c         1 MOL      0.703619
    151 O22        -6.1120   -3.3020   -5.4560 o         1 MOL     -0.730053
    152 O23        -5.6010   -1.2180   -6.0070 o         1 MOL     -0.730053
    153 H65        -5.6100   -0.0870   -1.7430 hn        1 MOL      0.175571
    154 H66        -6.9770   -2.5520   -1.0470 h1        1 MOL      0.167801
    155 H67        -5.4740   -3.3710   -2.8380 hc        1 MOL      0.002711
    156 H68        -4.5520   -1.9740   -2.9760 hc        1 MOL      0.002711
    157 H69        -6.4500   -0.5990   -3.7670 hc        1 MOL     -0.008660
    158 H70        -7.4810   -2.0900   -3.7120 hc        1 MOL     -0.008660
    159 N14        -4.1930   -2.0970    0.4500 n         1 MOL     -0.223647
    160 C53        -3.2310   -2.6370    1.4760 c3        1 MOL      0.018218
    161 C54        -3.8630   -2.4140    2.8660 c         1 MOL      0.356694
    162 O24        -3.8020   -3.2740    3.7750 o         1 MOL     -0.598341
    163 C55        -1.8770   -1.9590    1.4400 c3        1 MOL     -0.022095
    164 C56        -1.1120   -2.3410    0.1460 c3        1 MOL     -0.037284
    165 C57         0.1350   -1.5110    0.0080 c         1 MOL      0.652164
    166 O25         1.2330   -1.9330   -0.4970 o         1 MOL     -0.728088
    167 O26         0.1400   -0.2280    0.1320 o         1 MOL     -0.728088
    168 H71        -4.1980   -1.0990    0.2710 hn        1 MOL      0.157639
    169 H72        -3.0280   -3.6880    1.2960 h1        1 MOL      0.073306
    170 H73        -1.2700   -2.2500    2.2980 hc        1 MOL      0.083999
    171 H74        -2.0400   -0.8820    1.4930 hc        1 MOL      0.083999
    172 H75        -1.7450   -2.2090   -0.7360 hc        1 MOL      0.025355
    173 H76        -0.9030   -3.4060    0.1640 hc        1 MOL      0.025355
    174 N15        -4.6080   -1.4070    3.1590 n         1 MOL      0.083156
    175 C58        -5.5510   -1.2790    4.3140 c3        1 MOL     -0.206350
    176 H77        -5.2430   -0.4440    4.9430 h1        1 MOL      0.079067
    177 H78        -6.5600   -1.1010    3.9420 h1        1 MOL      0.079067
    178 H79        -5.5360   -2.1990    4.8990 h1        1 MOL      0.079067
    179 H80        -4.7630   -0.7220    2.4260 hn        1 MOL      0.008948
    180 Ca1         2.2130    0.4460   -1.1230 Ca        1 MOL      1.768544
    181 O27         1.2060    2.6220   -2.1200 oh        1 MOL     -0.840617
    182 H81         2.0210    2.8880   -2.5430 ho        1 MOL      0.393642
    183 H82         0.5130    3.0240   -2.6580 ho        1 MOL      0.393642
    184 O28         0.7030    0.0440   -3.2210 oh        1 MOL     -0.840617
    185 H83         1.2600   -0.3480   -3.8970 ho        1 MOL      0.393642
    186 H84        -0.1740   -0.2820   -3.4350 ho        1 MOL      0.393642
@<TRIPOS>BOND
     1    1    2 1   
     2    1    4 1   
     3    1    5 1   
     4    1    6 1   
     5    2    3 2   
     6    2    7 1   
     7    7    8 1   
     8    7   15 1   
     9    8    9 1   
    10    8   11 1   
    11    8   16 1   
    12    9   10 2   
    13    9   19 1   
    14   11   12 1   
    15   11   17 1   
    16   11   18 1   
    17   12   13 1   
    18   12   14 1   
    19   19   20 1   
    20   19   27 1   
    21   20   21 1   
    22   20   23 1   
    23   20   28 1   
    24   21   22 2   
    25   21   38 1   
    26   23   24 1   
    27   23   25 1   
    28   23   29 1   
    29   24   26 1   
    30   24   30 1   
    31   24   31 1   
    32   25   32 1   
    33   25   33 1   
    34   25   34 1   
    35   26   35 1   
    36   26   36 1   
    37   26   37 1   
    38   38   39 1   
    39   38   46 1   
    40   39   40 1   
    41   39   42 1   
    42   39   47 1   
    43   40   41 2   
    44   40   50 1   
    45   42   43 1   
    46   42   48 1   
    47   42   49 1   
    48   43   44 1   
    49   43   45 1   
    50   50   51 1   
    51   50   54 1   
    52   51   52 1   
    53   51   55 1   
    54   51   56 1   
    55   52   53 2   
    56   52   57 1   
    57   57   58 1   
    58   57   65 1   
    59   58   59 1   
    60   58   61 1   
    61   58   66 1   
    62   59   60 2   
    63   59   69 1   
    64   61   62 1   
    65   61   67 1   
    66   61   68 1   
    67   62   63 1   
    68   62   64 1   
    69   69   70 1   
    70   69   73 1   
    71   70   71 1   
    72   70   74 1   
    73   70   75 1   
    74   71   72 2   
    75   71   76 1   
    76   76   77 1   
    77   76   85 1   
    78   77   78 1   
    79   77   80 1   
    80   77   86 1   
    81   78   79 2   
    82   78   93 1   
    83   80   81 1   
    84   80   87 1   
    85   80   88 1   
    86   81   82 1   
    87   81   89 1   
    88   81   90 1   
    89   82   83 1   
    90   82   84 2   
    91   83   91 1   
    92   83   92 1   
    93   93   94 1   
    94   93  100 1   
    95   94   95 1   
    96   94   97 1   
    97   94  101 1   
    98   95   96 2   
    99   95  109 1   
   100   97   98 1   
   101   97   99 1   
   102   97  102 1   
   103   98  103 1   
   104   98  104 1   
   105   98  105 1   
   106   99  106 1   
   107   99  107 1   
   108   99  108 1   
   109  109  110 1   
   110  109  117 1   
   111  110  111 1   
   112  110  113 1   
   113  110  118 1   
   114  111  112 2   
   115  111  123 1   
   116  113  114 1   
   117  113  119 1   
   118  113  120 1   
   119  114  115 1   
   120  114  116 2   
   121  115  121 1   
   122  115  122 1   
   123  123  124 1   
   124  123  135 1   
   125  124  125 1   
   126  124  127 1   
   127  124  136 1   
   128  125  126 2   
   129  125  144 1   
   130  127  128 1   
   131  127  137 1   
   132  127  138 1   
   133  128  129 ar  
   134  128  130 ar  
   135  129  131 ar  
   136  129  139 1   
   137  130  132 ar  
   138  130  140 1   
   139  131  133 ar  
   140  131  141 1   
   141  132  133 ar  
   142  132  142 1   
   143  133  134 1   
   144  134  143 1   
   145  144  145 1   
   146  144  153 1   
   147  145  146 1   
   148  145  148 1   
   149  145  154 1   
   150  146  147 2   
   151  146  159 1   
   152  148  149 1   
   153  148  155 1   
   154  148  156 1   
   155  149  150 1   
   156  149  157 1   
   157  149  158 1   
   158  150  151 1   
   159  150  152 1   
   160  159  160 1   
   161  159  168 1   
   162  160  161 1   
   163  160  163 1   
   164  160  169 1   
   165  161  162 2   
   166  161  174 1   
   167  163  164 1   
   168  163  170 1   
   169  163  171 1   
   170  164  165 1   
   171  164  172 1   
   172  164  173 1   
   173  165  166 1   
   174  165  167 1   
   175  174  175 1   
   176  174  179 1   
   177  175  176 1   
   178  175  177 1   
   179  175  178 1   
   180  181  182 1   
   181  181  183 1   
   182  184  185 1   
   183  184  186 1   
@<TRIPOS>SUBSTRUCTURE
     1 MOL         1 TEMP              0 ****  ****    0 ROOT
