@<TRIPOS>MOLECULE
MOL
  172   171     1     0     0
SMALL
resp


@<TRIPOS>ATOM
      1 C1          0.5330    4.0910    5.7010 c3        1 MOL     -0.429742
      2 C2          0.0110    3.9230    4.2240 c         1 MOL      0.724892
      3 O1          0.8740    3.8910    3.3490 o         1 MOL     -0.551746
      4 H1          1.3670    3.4100    5.8710 hc        1 MOL      0.102323
      5 H2          0.8670    5.1170    5.8540 hc        1 MOL      0.102323
      6 H3         -0.2710    3.8610    6.4010 hc        1 MOL      0.102323
      7 N1         -1.3310    3.7890    4.0800 n         1 MOL     -0.691249
      8 C3         -1.9870    3.4990    2.7280 c3        1 MOL      0.318975
      9 C4         -2.0980    4.6830    1.8210 c         1 MOL      0.532499
     10 O2         -2.2970    5.8280    2.2430 o         1 MOL     -0.576569
     11 C5         -3.3480    2.8580    2.9600 c3        1 MOL     -0.214921
     12 C6         -4.0530    2.4340    1.7400 c         1 MOL      0.612745
     13 O3         -5.3040    2.6520    1.6790 o         1 MOL     -0.635047
     14 O4         -3.3430    1.9530    0.8360 o         1 MOL     -0.635047
     15 H4         -1.9180    4.0440    4.8680 hn        1 MOL      0.342489
     16 H5         -1.3970    2.7990    2.1410 h1        1 MOL     -0.010515
     17 H6         -3.8880    3.6150    3.5250 hc        1 MOL      0.031483
     18 H7         -3.1920    1.9960    3.6170 hc        1 MOL      0.031483
     19 N2         -2.0690    4.4390    0.4440 n         1 MOL     -0.513462
     20 C7         -2.1760    5.4210   -0.5700 c3        1 MOL      0.404859
     21 C8         -3.3220    5.1170   -1.5580 c         1 MOL      0.449450
     22 O5         -3.5980    6.1130   -2.3060 o         1 MOL     -0.603353
     23 C9         -0.8650    5.5000   -1.3100 c3        1 MOL     -0.210353
     24 H8         -1.7670    3.4960    0.2360 hn        1 MOL      0.212337
     25 H9         -2.4600    6.4030   -0.1950 h1        1 MOL     -0.006997
     26 H10        -0.0660    5.8400   -0.6410 hc        1 MOL      0.042846
     27 H11        -0.5830    4.5610   -1.7830 hc        1 MOL      0.042846
     28 H12        -0.9400    6.3170   -2.0290 hc        1 MOL      0.042846
     29 N3         -3.9290    3.9530   -1.6500 n         1 MOL     -0.427425
     30 C10        -4.8380    3.5380   -2.7450 c3        1 MOL      0.182920
     31 C11        -6.1020    2.7930   -2.2690 c         1 MOL      0.319459
     32 O6         -7.0520    2.6150   -3.0420 o         1 MOL     -0.548250
     33 C12        -4.0280    2.5970   -3.5830 c3        1 MOL     -0.229044
     34 C13        -3.3090    1.4200   -2.8940 c         1 MOL      0.708630
     35 O7         -3.8900    0.6410   -2.0890 o         1 MOL     -0.674069
     36 O8         -2.0740    1.3310   -2.9920 o         1 MOL     -0.674069
     37 H13        -3.6540    3.2090   -1.0310 hn        1 MOL      0.313728
     38 H14        -5.1630    4.3680   -3.3720 h1        1 MOL      0.082713
     39 H15        -3.2170    3.1820   -4.0170 hc        1 MOL      0.050327
     40 H16        -4.5980    2.1280   -4.3800 hc        1 MOL      0.050327
     41 N4         -6.1810    2.2520   -1.0380 n         1 MOL     -0.063193
     42 C14        -7.2150    1.4680   -0.4910 c3        1 MOL     -0.189192
     43 C15        -7.3940    0.0300   -0.9600 c         1 MOL      0.565392
     44 O9         -8.4140   -0.5340   -0.7080 o         1 MOL     -0.621237
     45 H17        -5.3160    2.1620   -0.5150 hn        1 MOL      0.015093
     46 H18        -8.1880    1.9310   -0.6690 h1        1 MOL      0.100658
     47 H19        -7.0730    1.4270    0.5940 h1        1 MOL      0.100658
     48 N5         -6.3770   -0.5910   -1.6060 n         1 MOL     -0.322524
     49 C16        -6.3020   -2.0400   -1.9000 c3        1 MOL     -0.049723
     50 C17        -6.1650   -3.0380   -0.7740 c         1 MOL      0.430752
     51 O10        -6.1160   -4.2100   -1.0100 o         1 MOL     -0.490400
     52 C18        -5.2420   -2.2300   -3.0220 c3        1 MOL     -0.222938
     53 C19        -3.7800   -2.1500   -2.6200 c         1 MOL      0.655927
     54 N6         -2.9000   -2.0400   -3.5400 n         1 MOL     -0.652465
     55 O11        -3.4480   -2.0380   -1.4610 o         1 MOL     -0.560857
     56 H20        -5.6920    0.0740   -1.9410 hn        1 MOL      0.262798
     57 H21        -7.2880   -2.2690   -2.3240 h1        1 MOL      0.113227
     58 H22        -5.4900   -1.5490   -3.8260 hc        1 MOL      0.066737
     59 H23        -5.3730   -3.2420   -3.3980 hc        1 MOL      0.066737
     60 H24        -3.1910   -2.0490   -4.4990 hn        1 MOL      0.327391
     61 H25        -1.9450   -1.9660   -3.2230 hn        1 MOL      0.327391
     62 N7         -6.2380   -2.5680    0.4760 n         1 MOL     -0.133893
     63 C20        -6.3620   -3.3980    1.6770 c3        1 MOL     -0.266233
     64 C21        -5.1330   -4.2470    2.0100 c         1 MOL      0.577927
     65 O12        -5.1780   -5.2570    2.7120 o         1 MOL     -0.560596
     66 H26        -6.5060   -1.6090    0.6350 hn        1 MOL      0.248188
     67 H27        -7.2470   -4.0100    1.4990 h1        1 MOL      0.102365
     68 H28        -6.5740   -2.7040    2.4930 h1        1 MOL      0.102365
     69 N8         -3.9740   -3.8150    1.4410 n         1 MOL     -0.365980
     70 C22        -2.6870   -4.5600    1.5050 c3        1 MOL     -0.136556
     71 C23        -1.5620   -3.4780    1.5580 c         1 MOL      0.445348
     72 O13        -1.5850   -2.3740    0.9180 o         1 MOL     -0.481395
     73 C24        -2.3580   -5.3050    0.2290 c3        1 MOL      0.415034
     74 C25        -3.3710   -6.5170    0.3680 c3        1 MOL     -0.457533
     75 O14        -2.7220   -4.6540   -1.0080 oh        1 MOL     -0.510032
     76 H29        -4.1200   -2.9900    0.8840 hn        1 MOL      0.351542
     77 H30        -2.6500   -5.2380    2.3520 h1        1 MOL      0.113555
     78 H31        -1.3340   -5.6880    0.2740 h1        1 MOL     -0.003086
     79 H32        -2.4260   -3.7490   -0.9120 ho        1 MOL      0.254272
     80 H33        -4.4200   -6.2750    0.1910 hc        1 MOL      0.114636
     81 H34        -3.0450   -7.2930   -0.3320 hc        1 MOL      0.114636
     82 H35        -3.3130   -6.9840    1.3540 hc        1 MOL      0.114636
     83 N9         -0.4550   -3.7990    2.2410 n         1 MOL     -0.397622
     84 C26         0.8270   -3.0140    2.1390 c3        1 MOL     -0.216056
     85 C27         1.4550   -3.2890    0.7630 c         1 MOL      0.672933
     86 O15         1.9280   -4.3350    0.4380 o         1 MOL     -0.615312
     87 C28         1.7950   -3.2430    3.3040 c3        1 MOL      0.163481
     88 C29         1.1920   -2.4670    4.5150 c3        1 MOL      0.164719
     89 C30         3.1730   -2.6820    3.0970 c3        1 MOL     -0.323510
     90 C31         1.9250   -2.7570    5.8520 c3        1 MOL     -0.382418
     91 H36        -0.3180   -4.7470    2.5740 hn        1 MOL      0.284341
     92 H37         0.6920   -1.9330    2.1730 h1        1 MOL      0.082885
     93 H38         1.8770   -4.2900    3.5790 hc        1 MOL      0.006615
     94 H39         0.2040   -2.8860    4.6930 hc        1 MOL     -0.020549
     95 H40         1.3040   -1.4170    4.2670 hc        1 MOL     -0.020549
     96 H41         3.7930   -2.4500    3.9580 hc        1 MOL      0.078072
     97 H42         3.7370   -3.2810    2.3800 hc        1 MOL      0.078072
     98 H43         3.0410   -1.7100    2.6290 hc        1 MOL      0.078072
     99 H44         2.8290   -2.1740    5.9690 hc        1 MOL      0.087424
    100 H45         1.3040   -2.2370    6.5850 hc        1 MOL      0.087424
    101 H46         1.8930   -3.8400    5.9980 hc        1 MOL      0.087424
    102 N10         1.4960   -2.2320   -0.0510 n         1 MOL     -0.319722
    103 C32         2.4340   -2.1640   -1.1960 c3        1 MOL      0.108785
    104 C33         3.8650   -1.7820   -0.7350 c         1 MOL      0.307947
    105 O16         4.1070   -1.1910    0.2750 o         1 MOL     -0.224936
    106 C34         1.9180   -1.2790   -2.4030 c3        1 MOL     -0.282710
    107 C35         0.4580   -1.4950   -2.8930 c         1 MOL      0.765947
    108 O17        -0.4430   -1.2530   -2.1130 o         1 MOL     -0.679479
    109 O18         0.2420   -1.7570   -4.0830 o         1 MOL     -0.679479
    110 H47         0.9490   -1.4260    0.2030 hn        1 MOL      0.162093
    111 H48         2.4170   -3.1970   -1.5710 h1        1 MOL      0.049969
    112 H49         2.6490   -1.4780   -3.1830 hc        1 MOL      0.039485
    113 H50         2.0690   -0.2540   -2.0470 hc        1 MOL      0.039485
    114 N11         4.8380   -1.8990   -1.5980 n         1 MOL     -0.521910
    115 C36         6.2510   -1.6100   -1.3650 c3        1 MOL      0.382883
    116 C37         6.6230   -0.1520   -0.8630 c         1 MOL      0.328510
    117 O19         7.3360   -0.0900    0.1030 o         1 MOL     -0.493474
    118 C38         7.0770   -1.9400   -2.6430 c3        1 MOL     -0.308538
    119 C39         8.5410   -1.5200   -2.5280 ca        1 MOL      0.075663
    120 C40         9.4110   -2.0470   -1.5630 ca        1 MOL     -0.066544
    121 C41         9.0860   -0.6780   -3.5350 ca        1 MOL     -0.066544
    122 C42        10.7920   -1.7570   -1.5060 ca        1 MOL     -0.231794
    123 C43        10.4720   -0.5480   -3.6250 ca        1 MOL     -0.231794
    124 C44        11.3070   -1.0050   -2.5390 ca        1 MOL      0.002581
    125 H51         4.5750   -2.4610   -2.3970 hn        1 MOL      0.298954
    126 H52         6.4710   -2.3180   -0.5760 h1        1 MOL      0.024932
    127 H53         6.5670   -1.6580   -3.5650 hc        1 MOL      0.080063
    128 H54         7.0610   -3.0280   -2.7090 hc        1 MOL      0.080063
    129 H55         9.0350   -2.6780   -0.7670 ha        1 MOL      0.096156
    130 H56         8.4430   -0.3150   -4.3270 ha        1 MOL      0.096156
    131 H57        11.4340   -2.1040   -0.7090 ha        1 MOL      0.139507
    132 H58        10.8650    0.1440   -4.3430 ha        1 MOL      0.139507
    133 H59        12.3540   -0.7510   -2.5710 ha        1 MOL      0.070363
    134 N12         6.1040    0.9770   -1.4220 n         1 MOL     -0.017821
    135 C45         6.4500    2.3560   -1.0180 c3        1 MOL     -0.072305
    136 C46         5.8250    2.6730    0.3780 c         1 MOL      0.318170
    137 O20         6.1560    3.6350    1.0470 o         1 MOL     -0.521870
    138 C47         5.7990    3.3320   -2.1220 c3        1 MOL     -0.009074
    139 C48         5.6040    2.4110   -3.3120 c3        1 MOL     -0.014417
    140 C49         5.3190    1.0710   -2.6400 c3        1 MOL     -0.288689
    141 H60         7.5360    2.3210   -0.9940 h1        1 MOL      0.098062
    142 H61         4.8450    3.7160   -1.7770 hc        1 MOL      0.040684
    143 H62         6.4480    4.1760   -2.3550 hc        1 MOL      0.040684
    144 H63         4.8050    2.6900   -4.0030 hc        1 MOL      0.024282
    145 H64         6.5470    2.3790   -3.8510 hc        1 MOL      0.024282
    146 H65         4.2920    1.2610   -2.3590 h1        1 MOL      0.147269
    147 H66         5.3580    0.2260   -3.3370 h1        1 MOL      0.147269
    148 N13         4.9150    1.8330    0.8050 n         1 MOL      0.029324
    149 C50         4.1470    2.0380    2.0630 c3        1 MOL     -0.252782
    150 C51         4.8140    1.2570    3.1830 c         1 MOL      0.573306
    151 O21         4.9450    1.7780    4.2740 o         1 MOL     -0.555469
    152 C52         2.7170    1.5410    1.7960 c3        1 MOL     -0.006628
    153 C53         1.9990    2.1330    0.5380 c3        1 MOL      0.012489
    154 C54         0.6320    1.4520    0.3210 c         1 MOL      0.644416
    155 O22         0.3960    0.2370    0.6210 o         1 MOL     -0.735623
    156 O23        -0.4100    2.0680   -0.1770 o         1 MOL     -0.735623
    157 H67         4.6900    1.0510    0.2100 hn        1 MOL      0.031610
    158 H68         3.9480    3.0860    2.3130 h1        1 MOL      0.133956
    159 H69         2.1820    1.7080    2.7320 hc        1 MOL      0.062436
    160 H70         2.7200    0.4610    1.7250 hc        1 MOL      0.062436
    161 H71         2.5680    1.9640   -0.3710 hc        1 MOL      0.041422
    162 H72         1.8490    3.2120    0.5200 hc        1 MOL      0.041422
    163 N14         5.3130    0.0580    2.8460 n         1 MOL     -0.101329
    164 C55         6.2030   -0.6840    3.7500 c3        1 MOL     -0.172907
    165 H73         6.3130   -1.7080    3.3910 h1        1 MOL      0.070973
    166 H74         7.1800   -0.2020    3.7780 h1        1 MOL      0.070973
    167 H75         5.7750   -0.6960    4.7530 h1        1 MOL      0.070973
    168 H76         5.0050   -0.4380    2.0260 hn        1 MOL      0.031821
    169 Ca1        -2.0330   -0.0290   -0.4440 Ca        1 MOL      1.730909
    170 O24        -3.9460   -0.7440    1.3400 oh        1 MOL     -1.029125
    171 H77        -3.3470   -0.4010    1.9990 ho        1 MOL      0.457263
    172 H78        -4.7990   -0.3700    1.5720 ho        1 MOL      0.457263
@<TRIPOS>BOND
     1    1    2 1   
     2    1    4 1   
     3    1    5 1   
     4    1    6 1   
     5    2    3 2   
     6    2    7 1   
     7    7    8 1   
     8    7   15 1   
     9    8    9 1   
    10    8   11 1   
    11    8   16 1   
    12    9   10 2   
    13    9   19 1   
    14   11   12 1   
    15   11   17 1   
    16   11   18 1   
    17   12   13 1   
    18   12   14 1   
    19   19   20 1   
    20   19   24 1   
    21   20   21 1   
    22   20   23 1   
    23   20   25 1   
    24   21   22 2   
    25   21   29 1   
    26   23   26 1   
    27   23   27 1   
    28   23   28 1   
    29   29   30 1   
    30   29   37 1   
    31   30   31 1   
    32   30   33 1   
    33   30   38 1   
    34   31   32 2   
    35   31   41 1   
    36   33   34 1   
    37   33   39 1   
    38   33   40 1   
    39   34   35 1   
    40   34   36 1   
    41   41   42 1   
    42   41   45 1   
    43   42   43 1   
    44   42   46 1   
    45   42   47 1   
    46   43   44 2   
    47   43   48 1   
    48   48   49 1   
    49   48   56 1   
    50   49   50 1   
    51   49   52 1   
    52   49   57 1   
    53   50   51 2   
    54   50   62 1   
    55   52   53 1   
    56   52   58 1   
    57   52   59 1   
    58   53   54 1   
    59   53   55 2   
    60   54   60 1   
    61   54   61 1   
    62   62   63 1   
    63   62   66 1   
    64   63   64 1   
    65   63   67 1   
    66   63   68 1   
    67   64   65 2   
    68   64   69 1   
    69   69   70 1   
    70   69   76 1   
    71   70   71 1   
    72   70   73 1   
    73   70   77 1   
    74   71   72 2   
    75   71   83 1   
    76   73   74 1   
    77   73   75 1   
    78   73   78 1   
    79   74   80 1   
    80   74   81 1   
    81   74   82 1   
    82   75   79 1   
    83   83   84 1   
    84   83   91 1   
    85   84   85 1   
    86   84   87 1   
    87   84   92 1   
    88   85   86 2   
    89   85  102 1   
    90   87   88 1   
    91   87   89 1   
    92   87   93 1   
    93   88   90 1   
    94   88   94 1   
    95   88   95 1   
    96   89   96 1   
    97   89   97 1   
    98   89   98 1   
    99   90   99 1   
   100   90  100 1   
   101   90  101 1   
   102  102  103 1   
   103  102  110 1   
   104  103  104 1   
   105  103  106 1   
   106  103  111 1   
   107  104  105 2   
   108  104  114 1   
   109  106  107 1   
   110  106  112 1   
   111  106  113 1   
   112  107  108 1   
   113  107  109 1   
   114  114  115 1   
   115  114  125 1   
   116  115  116 1   
   117  115  118 1   
   118  115  126 1   
   119  116  117 2   
   120  116  134 1   
   121  118  119 1   
   122  118  127 1   
   123  118  128 1   
   124  119  120 ar  
   125  119  121 ar  
   126  120  122 ar  
   127  120  129 1   
   128  121  123 ar  
   129  121  130 1   
   130  122  124 ar  
   131  122  131 1   
   132  123  124 ar  
   133  123  132 1   
   134  124  133 1   
   135  134  135 1   
   136  134  140 1   
   137  135  136 1   
   138  135  138 1   
   139  135  141 1   
   140  136  137 2   
   141  136  148 1   
   142  138  139 1   
   143  138  142 1   
   144  138  143 1   
   145  139  140 1   
   146  139  144 1   
   147  139  145 1   
   148  140  146 1   
   149  140  147 1   
   150  148  149 1   
   151  148  157 1   
   152  149  150 1   
   153  149  152 1   
   154  149  158 1   
   155  150  151 2   
   156  150  163 1   
   157  152  153 1   
   158  152  159 1   
   159  152  160 1   
   160  153  154 1   
   161  153  161 1   
   162  153  162 1   
   163  154  155 1   
   164  154  156 1   
   165  163  164 1   
   166  163  168 1   
   167  164  165 1   
   168  164  166 1   
   169  164  167 1   
   170  170  171 1   
   171  170  172 1   
@<TRIPOS>SUBSTRUCTURE
     1 MOL         1 TEMP              0 ****  ****    0 ROOT
