@<TRIPOS>MOLECULE
MOL
  179   176     1     0     0
SMALL
resp


@<TRIPOS>ATOM
      1 C1          0.6460    2.9920    6.3450 c3        1 MOL     -0.260638
      2 C2          0.4870    2.4970    4.9110 c         1 MOL      0.761100
      3 O1          1.4630    2.4430    4.1660 o         1 MOL     -0.592474
      4 H1         -0.3090    3.3750    6.7040 hc        1 MOL      0.064768
      5 H2          0.9690    2.1680    6.9800 hc        1 MOL      0.064768
      6 H3          1.3900    3.7880    6.3750 hc        1 MOL      0.064768
      7 N1         -0.7790    2.1930    4.5310 n         1 MOL     -0.658781
      8 C3         -1.1450    1.9760    3.1120 c3        1 MOL     -0.042615
      9 C4         -1.1440    3.3290    2.3910 c         1 MOL      0.703130
     10 O2         -1.8670    4.2470    2.7920 o         1 MOL     -0.591617
     11 C5         -2.5520    1.3580    3.1550 c3        1 MOL      0.006355
     12 C6         -3.1190    1.0350    1.7730 c         1 MOL      0.497329
     13 O3         -2.5430    1.4830    0.7100 o         1 MOL     -0.647078
     14 O4         -4.2850    0.4790    1.7570 o         1 MOL     -0.647078
     15 H4         -1.5020    2.3180    5.2150 hn        1 MOL      0.336671
     16 H5         -0.4160    1.2800    2.7080 h1        1 MOL      0.090807
     17 H6         -3.2660    2.0710    3.5690 hc        1 MOL      0.037452
     18 H7         -2.4660    0.5250    3.8590 hc        1 MOL      0.037452
     19 N2         -0.3930    3.5380    1.2980 n         1 MOL     -0.413851
     20 C7         -0.2420    4.8180    0.5310 c3        1 MOL     -0.134004
     21 C8         -1.4240    5.1630   -0.2270 c         1 MOL      0.607126
     22 O5         -1.5190    6.3360   -0.5390 o         1 MOL     -0.604808
     23 C9          0.9630    4.5400   -0.3660 c3        1 MOL     -0.044845
     24 C10         1.3400    5.7250   -1.2920 c3        1 MOL     -0.266244
     25 C11         2.7980    5.6300   -1.7740 c3        1 MOL      0.035155
     26 C12         3.1680    6.9980   -2.4810 c3        1 MOL      0.125641
     27 N3          4.4640    6.9250   -3.1120 n4        1 MOL     -0.472096
     28 H8          0.1920    2.7350    1.0820 hn        1 MOL      0.197976
     29 H9          0.0570    5.6210    1.2120 h1        1 MOL      0.132249
     30 H10         0.7730    3.6020   -0.8950 hc        1 MOL      0.129253
     31 H11         1.8250    4.2580    0.2500 hc        1 MOL      0.129253
     32 H12         1.2360    6.6790   -0.7750 hc        1 MOL      0.094330
     33 H13         0.7470    5.7310   -2.2040 hc        1 MOL      0.094330
     34 H14         2.8780    4.8520   -2.5240 hc        1 MOL      0.018485
     35 H15         3.4650    5.3770   -0.9550 hc        1 MOL      0.018485
     36 H16         3.1910    7.8990   -1.8680 hx        1 MOL      0.067889
     37 H17         2.3510    7.1510   -3.1880 hx        1 MOL      0.067889
     38 H18         4.7400    7.8710   -3.3320 hn        1 MOL      0.355129
     39 H19         5.1550    6.5260   -2.4920 hn        1 MOL      0.355129
     40 H20         4.4330    6.3950   -3.9740 hn        1 MOL      0.355129
     41 N4         -2.2930    4.3010   -0.6470 n         1 MOL     -0.309604
     42 C13        -3.4530    4.6210   -1.5240 c3        1 MOL     -0.081717
     43 C14        -4.7910    4.0040   -1.0830 c         1 MOL      0.490666
     44 O6         -5.7940    3.9880   -1.8700 o         1 MOL     -0.546565
     45 C15        -3.0170    4.2230   -3.0020 c3        1 MOL     -0.272044
     46 C16        -2.5850    2.6990   -3.1150 c         1 MOL      0.794636
     47 O7         -2.0620    2.2550   -4.1490 o         1 MOL     -0.744729
     48 O8         -2.8570    1.9290   -2.2120 o         1 MOL     -0.744729
     49 H21        -2.1930    3.3570   -0.2980 hn        1 MOL      0.145691
     50 H22        -3.6100    5.7050   -1.5310 h1        1 MOL      0.146405
     51 H23        -2.3250    4.9070   -3.4950 hc        1 MOL      0.091058
     52 H24        -3.8720    4.1990   -3.6780 hc        1 MOL      0.091058
     53 N5         -4.8720    3.4660    0.1260 n         1 MOL     -0.329607
     54 C17        -6.0640    2.9830    0.7690 c3        1 MOL     -0.090208
     55 C18        -6.6430    1.6910    0.1810 c         1 MOL      0.528004
     56 O9         -7.8020    1.4140    0.5030 o         1 MOL     -0.571113
     57 H25        -3.9900    3.2950    0.5920 hn        1 MOL      0.269992
     58 H26        -6.8440    3.7310    0.8760 h1        1 MOL      0.101659
     59 H27        -5.7690    2.7420    1.7840 h1        1 MOL      0.101659
     60 N6         -5.9650    0.9830   -0.7580 n         1 MOL     -0.225762
     61 C19        -6.4980   -0.1890   -1.4410 c3        1 MOL     -0.076607
     62 C20        -6.7540   -1.4350   -0.5100 c         1 MOL      0.394714
     63 O10        -7.3660   -2.4540   -0.8780 o         1 MOL     -0.519565
     64 C21        -5.6870   -0.5350   -2.7140 c3        1 MOL     -0.309777
     65 C22        -4.5490   -1.5340   -2.3610 c         1 MOL      0.724975
     66 N7         -4.5330   -2.7070   -2.9990 n         1 MOL     -0.753489
     67 O11        -3.7110   -1.1910   -1.5640 o         1 MOL     -0.668708
     68 H28        -4.9790    1.1490   -0.8610 hn        1 MOL      0.233484
     69 H29        -7.5260    0.1250   -1.6130 h1        1 MOL      0.137438
     70 H30        -5.2670    0.3820   -3.1250 hc        1 MOL      0.134102
     71 H31        -6.3670   -0.8480   -3.5130 hc        1 MOL      0.134102
     72 H32        -4.9940   -3.0180   -3.8410 hn        1 MOL      0.347535
     73 H33        -3.8320   -3.3600   -2.6670 hn        1 MOL      0.347535
     74 N8         -6.1680   -1.4510    0.7750 n         1 MOL     -0.071393
     75 C23        -6.4260   -2.5250    1.6860 c3        1 MOL     -0.407881
     76 C24        -5.1740   -3.4510    1.8970 c         1 MOL      0.608935
     77 O12        -5.2720   -4.3750    2.7290 o         1 MOL     -0.563298
     78 H34        -5.6980   -0.5930    1.0210 hn        1 MOL      0.222464
     79 H35        -7.2590   -3.1550    1.3520 h1        1 MOL      0.168887
     80 H36        -6.6010   -2.0820    2.6720 h1        1 MOL      0.168887
     81 N9         -4.0350   -3.1960    1.2160 n         1 MOL     -0.396977
     82 C25        -2.8040   -3.8900    1.4910 c3        1 MOL      0.102338
     83 C26        -1.5940   -2.9570    1.6890 c         1 MOL      0.610155
     84 O13        -1.4770   -1.9670    0.9930 o         1 MOL     -0.601311
     85 C27        -2.5770   -5.1040    0.6240 c3        1 MOL     -0.165099
     86 C28        -2.4200   -4.9550   -0.8790 ca        1 MOL      0.176302
     87 C29        -1.2220   -4.5570   -1.3650 ca        1 MOL     -0.161255
     88 C30        -3.3300   -5.5000   -1.7230 ca        1 MOL     -0.161255
     89 C31        -0.8830   -4.7050   -2.7070 ca        1 MOL     -0.265161
     90 C32        -2.9930   -5.6400   -3.1050 ca        1 MOL     -0.265161
     91 C33        -1.7670   -5.2240   -3.6060 ca        1 MOL      0.364919
     92 O14        -1.5280   -5.2640   -4.9370 oh        1 MOL     -0.534182
     93 H37        -4.0630   -2.4550    0.5360 hn        1 MOL      0.252097
     94 H38        -2.9020   -4.3640    2.4620 h1        1 MOL      0.046135
     95 H39        -3.4910   -5.6890    0.7640 hc        1 MOL      0.066010
     96 H40        -1.7610   -5.7620    0.9130 hc        1 MOL      0.066010
     97 H41        -0.4300   -4.2570   -0.6850 ha        1 MOL      0.134742
     98 H42        -4.2880   -5.8420   -1.3540 ha        1 MOL      0.134742
     99 H43         0.0660   -4.3780   -3.0980 ha        1 MOL      0.120988
    100 H44        -3.6980   -6.1070   -3.7760 ha        1 MOL      0.120988
    101 H45        -2.3020   -5.4490   -5.4700 ho        1 MOL      0.391779
    102 N10        -0.5180   -3.3740    2.4490 n         1 MOL     -0.674238
    103 C34         0.8260   -2.7870    2.4260 c3        1 MOL      0.164630
    104 C35         1.7140   -3.6010    1.4870 c         1 MOL      0.374272
    105 O15         1.5550   -4.8370    1.3530 o         1 MOL     -0.519938
    106 C36         1.4830   -2.8070    3.8130 c3        1 MOL     -0.002832
    107 C37         0.6240   -2.4610    5.0040 c3        1 MOL      0.044280
    108 C38         2.8040   -1.9950    4.0050 c3        1 MOL     -0.386763
    109 C39        -0.2480   -1.1760    5.0170 c3        1 MOL     -0.104872
    110 H46        -0.6840   -4.2770    2.8760 hn        1 MOL      0.361118
    111 H47         0.7770   -1.7430    2.1040 h1        1 MOL      0.101097
    112 H48         1.7750   -3.8450    3.9600 hc        1 MOL      0.041344
    113 H49         1.2030   -2.4120    5.9290 hc        1 MOL      0.006413
    114 H50        -0.0490   -3.3120    5.1080 hc        1 MOL      0.006413
    115 H51         3.2220   -1.9120    5.0060 hc        1 MOL      0.093781
    116 H52         3.5670   -2.2790    3.2890 hc        1 MOL      0.093781
    117 H53         2.4930   -0.9950    3.6920 hc        1 MOL      0.093781
    118 H54        -0.8850   -1.0400    4.1320 hc        1 MOL      0.032367
    119 H55        -0.8820   -1.1540    5.9010 hc        1 MOL      0.032367
    120 H56         0.3720   -0.2750    5.0010 hc        1 MOL      0.032367
    121 N11         2.6810   -2.9210    0.8680 n         1 MOL     -0.182411
    122 C40         3.6590   -3.5230   -0.1200 c3        1 MOL     -0.121474
    123 C41         5.0020   -2.8650    0.0080 c         1 MOL      0.370262
    124 O16         5.1900   -1.7920    0.6340 o         1 MOL     -0.374410
    125 C42         3.1340   -3.2990   -1.5480 c3        1 MOL     -0.096176
    126 O17         3.0950   -1.9250   -1.8870 oh        1 MOL     -0.583305
    127 H57         2.5260   -1.9360    0.7580 hn        1 MOL      0.418850
    128 H58         3.8350   -4.5920   -0.0050 h1        1 MOL      0.093733
    129 H59         2.1360   -3.7100   -1.4230 h1        1 MOL      0.117252
    130 H60         3.8770   -3.8780   -2.1130 h1        1 MOL      0.117252
    131 H61         2.5140   -1.4510   -1.2770 ho        1 MOL      0.381617
    132 N12         6.0650   -3.5430   -0.5700 n         1 MOL     -0.277696
    133 C43         7.4430   -3.2650   -0.3900 c3        1 MOL     -0.036960
    134 C44         7.8750   -1.8470   -0.8030 c         1 MOL      0.473419
    135 O18         8.6210   -1.1390   -0.0990 o         1 MOL     -0.501275
    136 C45         8.2820   -4.3520   -1.0640 c3        1 MOL     -0.420416
    137 H62         5.9110   -4.3980   -1.0820 hn        1 MOL      0.282444
    138 H63         7.6210   -3.3730    0.6780 h1        1 MOL      0.113170
    139 H64         8.2110   -4.4860   -2.1410 hc        1 MOL      0.133590
    140 H65         9.3450   -4.1190   -0.9270 hc        1 MOL      0.133590
    141 H66         7.9490   -5.3140   -0.6740 hc        1 MOL      0.133590
    142 N13         7.3800   -1.4120   -1.9820 n         1 MOL     -0.357349
    143 C46         7.5800   -0.0890   -2.5350 c3        1 MOL      0.103123
    144 C47         6.8780    1.0160   -1.6100 c         1 MOL      0.424099
    145 O19         7.5130    2.0030   -1.2570 o         1 MOL     -0.523324
    146 C48         7.0780    0.0600   -3.9650 c3        1 MOL     -0.052574
    147 H67         6.8620   -2.1030   -2.4990 hn        1 MOL      0.248815
    148 H68         8.6330    0.1440   -2.6930 h1        1 MOL      0.073613
    149 H69         7.3140   -0.7750   -4.6280 hc        1 MOL      0.012743
    150 H70         6.0090    0.2180   -3.9380 hc        1 MOL      0.012743
    151 H71         7.5690    0.9590   -4.3550 hc        1 MOL      0.012743
    152 N14         5.6530    0.7930   -1.1170 n         1 MOL     -0.309599
    153 C49         5.0670    1.7640   -0.1000 c3        1 MOL     -0.183518
    154 C50         5.7230    1.7790    1.2810 c         1 MOL      0.642750
    155 O20         5.8210    2.8540    1.8600 o         1 MOL     -0.555170
    156 C51         3.4510    1.6810   -0.1670 c3        1 MOL      0.030150
    157 C52         2.8270    0.6410    0.7760 c3        1 MOL      0.120160
    158 C53         1.4030    0.1870    0.2830 c         1 MOL      0.459287
    159 O21         1.2690   -0.8650   -0.4260 o         1 MOL     -0.635381
    160 O22         0.4870    1.0360    0.4630 o         1 MOL     -0.635381
    161 H72         5.2340   -0.0790   -1.3930 hn        1 MOL      0.221991
    162 H73         5.2930    2.7250   -0.5470 h1        1 MOL      0.102323
    163 H74         3.0110    1.5380   -1.1540 hc        1 MOL     -0.010732
    164 H75         3.2020    2.7240    0.0470 hc        1 MOL     -0.010732
    165 H76         2.7210    1.1220    1.7530 hc        1 MOL     -0.057130
    166 H77         3.5200   -0.1980    0.8310 hc        1 MOL     -0.057130
    167 N15         6.1800    0.5910    1.7940 n         1 MOL     -0.198239
    168 C54         6.9560    0.4020    3.0060 c3        1 MOL     -0.458025
    169 H78         6.4040    0.8050    3.8560 h1        1 MOL      0.162761
    170 H79         7.1340   -0.6620    3.1610 h1        1 MOL      0.162761
    171 H80         7.9090    0.9220    2.9130 h1        1 MOL      0.162761
    172 H81         5.7370   -0.2480    1.4500 hn        1 MOL      0.220564
    173 Ca1        -1.4040    0.2090   -1.0130 Ca        1 MOL      1.780037
    174 O23        -1.3480   -1.5030   -2.9990 oh        1 MOL     -0.869652
    175 H82        -0.5310   -1.8230   -3.3830 ho        1 MOL      0.415083
    176 H83        -1.9660   -1.4800   -3.7210 ho        1 MOL      0.415083
    177 O24         0.3880    1.0660   -2.7680 oh        1 MOL     -0.869652
    178 H84         1.1790    0.5340   -2.8850 ho        1 MOL      0.415083
    179 H85         0.0790    1.2330   -3.6520 ho        1 MOL      0.415083
@<TRIPOS>BOND
     1    1    2 1   
     2    1    4 1   
     3    1    5 1   
     4    1    6 1   
     5    2    3 2   
     6    2    7 1   
     7    7    8 1   
     8    7   15 1   
     9    8    9 1   
    10    8   11 1   
    11    8   16 1   
    12    9   10 2   
    13    9   19 1   
    14   11   12 1   
    15   11   17 1   
    16   11   18 1   
    17   12   13 1   
    18   12   14 1   
    19   19   20 1   
    20   19   28 1   
    21   20   21 1   
    22   20   23 1   
    23   20   29 1   
    24   21   22 2   
    25   21   41 1   
    26   23   24 1   
    27   23   30 1   
    28   23   31 1   
    29   24   25 1   
    30   24   32 1   
    31   24   33 1   
    32   25   26 1   
    33   25   34 1   
    34   25   35 1   
    35   26   27 1   
    36   26   36 1   
    37   26   37 1   
    38   27   38 1   
    39   27   39 1   
    40   27   40 1   
    41   41   42 1   
    42   41   49 1   
    43   42   43 1   
    44   42   45 1   
    45   42   50 1   
    46   43   44 2   
    47   43   53 1   
    48   45   46 1   
    49   45   51 1   
    50   45   52 1   
    51   46   47 1   
    52   46   48 1   
    53   53   54 1   
    54   53   57 1   
    55   54   55 1   
    56   54   58 1   
    57   54   59 1   
    58   55   56 2   
    59   55   60 1   
    60   60   61 1   
    61   60   68 1   
    62   61   62 1   
    63   61   64 1   
    64   61   69 1   
    65   62   63 2   
    66   62   74 1   
    67   64   65 1   
    68   64   70 1   
    69   64   71 1   
    70   65   66 1   
    71   65   67 2   
    72   66   72 1   
    73   66   73 1   
    74   74   75 1   
    75   74   78 1   
    76   75   76 1   
    77   75   79 1   
    78   75   80 1   
    79   76   77 2   
    80   76   81 1   
    81   81   82 1   
    82   81   93 1   
    83   82   83 1   
    84   82   85 1   
    85   82   94 1   
    86   83   84 2   
    87   83  102 1   
    88   85   86 1   
    89   85   95 1   
    90   85   96 1   
    91   86   87 ar  
    92   86   88 ar  
    93   87   89 ar  
    94   87   97 1   
    95   88   90 ar  
    96   88   98 1   
    97   89   91 ar  
    98   89   99 1   
    99   90   91 ar  
   100   90  100 1   
   101   91   92 1   
   102   92  101 1   
   103  102  103 1   
   104  102  110 1   
   105  103  104 1   
   106  103  106 1   
   107  103  111 1   
   108  104  105 2   
   109  104  121 1   
   110  106  107 1   
   111  106  108 1   
   112  106  112 1   
   113  107  109 1   
   114  107  113 1   
   115  107  114 1   
   116  108  115 1   
   117  108  116 1   
   118  108  117 1   
   119  109  118 1   
   120  109  119 1   
   121  109  120 1   
   122  121  122 1   
   123  121  127 1   
   124  122  123 1   
   125  122  125 1   
   126  122  128 1   
   127  123  124 2   
   128  123  132 1   
   129  125  126 1   
   130  125  129 1   
   131  125  130 1   
   132  126  131 1   
   133  132  133 1   
   134  132  137 1   
   135  133  134 1   
   136  133  136 1   
   137  133  138 1   
   138  134  135 2   
   139  134  142 1   
   140  136  139 1   
   141  136  140 1   
   142  136  141 1   
   143  142  143 1   
   144  142  147 1   
   145  143  144 1   
   146  143  146 1   
   147  143  148 1   
   148  144  145 2   
   149  144  152 1   
   150  146  149 1   
   151  146  150 1   
   152  146  151 1   
   153  152  153 1   
   154  152  161 1   
   155  153  154 1   
   156  153  156 1   
   157  153  162 1   
   158  154  155 2   
   159  154  167 1   
   160  156  157 1   
   161  156  163 1   
   162  156  164 1   
   163  157  158 1   
   164  157  165 1   
   165  157  166 1   
   166  158  159 1   
   167  158  160 1   
   168  167  168 1   
   169  167  172 1   
   170  168  169 1   
   171  168  170 1   
   172  168  171 1   
   173  174  175 1   
   174  174  176 1   
   175  177  178 1   
   176  177  179 1   
@<TRIPOS>SUBSTRUCTURE
     1 MOL         1 TEMP              0 ****  ****    0 ROOT
