@<TRIPOS>MOLECULE
MOL
  175   173     1     0     0
SMALL
resp


@<TRIPOS>ATOM
      1 C1          0.8850    4.3520    5.3950 c3        1 MOL     -0.467854
      2 C2          0.1630    4.0160    4.0460 c         1 MOL      0.777196
      3 O1          0.7770    4.0990    3.0340 o         1 MOL     -0.556877
      4 H1          1.1910    3.4270    5.8830 hc        1 MOL      0.110049
      5 H2          1.7640    4.9640    5.1950 hc        1 MOL      0.110049
      6 H3          0.2030    4.8980    6.0470 hc        1 MOL      0.110049
      7 N1         -1.1510    3.7150    4.0810 n         1 MOL     -0.712466
      8 C3         -1.8510    3.4050    2.8510 c3        1 MOL      0.200010
      9 C4         -2.1730    4.5680    1.9870 c         1 MOL      0.554668
     10 O2         -2.5070    5.5960    2.4900 o         1 MOL     -0.574269
     11 C5         -3.2200    2.7160    3.2190 c3        1 MOL     -0.181784
     12 C6         -4.0160    2.0470    2.0660 c         1 MOL      0.806124
     13 O3         -5.1720    1.6880    2.2600 o         1 MOL     -0.704988
     14 O4         -3.4960    1.9990    0.9450 o         1 MOL     -0.704988
     15 H4         -1.6420    3.8580    4.9630 hn        1 MOL      0.346297
     16 H5         -1.2530    2.7400    2.2340 h1        1 MOL      0.117427
     17 H6         -3.9480    3.3130    3.7650 hc        1 MOL      0.016797
     18 H7         -2.9540    1.9490    3.9470 hc        1 MOL      0.016797
     19 N2         -2.0830    4.4270    0.6320 n         1 MOL     -0.495072
     20 C7         -2.4300    5.5810   -0.2670 c3        1 MOL      0.278995
     21 C8         -3.2910    5.1470   -1.5120 c         1 MOL      0.477881
     22 O5         -3.2920    5.8390   -2.5720 o         1 MOL     -0.564386
     23 C9         -1.0480    6.1760   -0.5940 c3        1 MOL     -0.362916
     24 H8         -1.5770    3.6680    0.2070 hn        1 MOL      0.311876
     25 H9         -3.0040    6.3440    0.2660 h1        1 MOL      0.022374
     26 H10        -0.4280    6.1660    0.2920 hc        1 MOL      0.086609
     27 H11        -0.5120    5.5710   -1.3330 hc        1 MOL      0.086609
     28 H12        -1.1490    7.2280   -0.8690 hc        1 MOL      0.086609
     29 N3         -4.0340    4.0160   -1.4090 n         1 MOL     -0.558371
     30 C10        -5.0380    3.6000   -2.4470 c3        1 MOL      0.225348
     31 C11        -6.2160    2.8580   -1.9430 c         1 MOL      0.277071
     32 O6         -7.3260    2.8630   -2.5490 o         1 MOL     -0.544916
     33 C12        -4.2520    2.7840   -3.5640 c3        1 MOL     -0.077333
     34 C13        -3.2620    1.7210   -2.9540 c         1 MOL      0.724908
     35 O7         -3.5180    1.1180   -1.9300 o         1 MOL     -0.715372
     36 O8         -2.3110    1.3830   -3.7460 o         1 MOL     -0.715372
     37 H13        -3.8380    3.4290   -0.6180 hn        1 MOL      0.289687
     38 H14        -5.4380    4.4330   -3.0210 h1        1 MOL      0.047825
     39 H15        -3.7010    3.5390   -4.1360 hc        1 MOL      0.014242
     40 H16        -4.9520    2.3610   -4.2850 hc        1 MOL      0.014242
     41 N4         -6.0290    2.1430   -0.7780 n         1 MOL     -0.052772
     42 C14        -7.0740    1.2490   -0.2260 c3        1 MOL     -0.395072
     43 C15        -7.0410   -0.2130   -0.6930 c         1 MOL      0.660239
     44 O9         -7.9030   -0.9810   -0.2690 o         1 MOL     -0.642816
     45 H17        -5.1650    2.2270   -0.2800 hn        1 MOL      0.110941
     46 H18        -8.0770    1.5600   -0.5240 h1        1 MOL      0.161442
     47 H19        -7.0500    1.3480    0.8590 h1        1 MOL      0.161442
     48 N5         -6.1350   -0.5610   -1.5830 n         1 MOL     -0.468259
     49 C16        -6.1810   -1.7890   -2.3850 c3        1 MOL      0.144936
     50 C17        -6.1680   -3.0820   -1.5540 c         1 MOL      0.300991
     51 O10        -6.1940   -4.1790   -2.1500 o         1 MOL     -0.517972
     52 C18        -5.0260   -1.7510   -3.3580 c3        1 MOL     -0.174016
     53 C19        -3.6970   -2.1470   -2.6170 c         1 MOL      0.439892
     54 N6         -2.7250   -2.6390   -3.2930 n         1 MOL     -0.440495
     55 O11        -3.4790   -2.0090   -1.4200 o         1 MOL     -0.503036
     56 H20        -5.5530    0.1940   -1.9080 hn        1 MOL      0.310034
     57 H21        -7.0860   -1.8130   -3.0020 h1        1 MOL      0.061726
     58 H22        -4.9370   -0.7650   -3.8140 hc        1 MOL      0.059092
     59 H23        -5.3280   -2.4680   -4.1140 hc        1 MOL      0.059092
     60 H24        -2.9140   -2.6960   -4.2860 hn        1 MOL      0.271460
     61 H25        -1.8100   -2.7620   -2.8670 hn        1 MOL      0.271460
     62 N7         -5.9310   -2.9650   -0.2190 n         1 MOL      0.013631
     63 C20        -5.8860   -4.0880    0.7340 c3        1 MOL     -0.278354
     64 C21        -4.5880   -4.8790    0.8740 c         1 MOL      0.707752
     65 O12        -4.7000   -5.9980    1.3420 o         1 MOL     -0.601281
     66 H26        -6.0230   -2.0880    0.2760 hn        1 MOL      0.207487
     67 H27        -6.6280   -4.8010    0.3920 h1        1 MOL      0.083190
     68 H28        -6.2150   -3.6670    1.6870 h1        1 MOL      0.083190
     69 N8         -3.4410   -4.2120    0.6920 n         1 MOL     -0.454045
     70 C22        -2.1100   -4.6300    1.1580 c3        1 MOL     -0.064552
     71 C23        -1.1810   -3.4820    1.4830 c         1 MOL      0.340245
     72 O13        -1.3390   -2.4450    0.8600 o         1 MOL     -0.356009
     73 C24        -1.3770   -5.5570    0.1180 c3        1 MOL      0.527489
     74 C25        -1.9670   -6.9380   -0.1230 c3        1 MOL     -0.385760
     75 O14        -1.4270   -4.9400   -1.2150 oh        1 MOL     -0.609555
     76 H29        -3.4970   -3.3410    0.1810 hn        1 MOL      0.270860
     77 H30        -2.2220   -5.2570    2.0380 h1        1 MOL      0.059822
     78 H31        -0.3430   -5.6520    0.4220 h1        1 MOL     -0.030291
     79 H32        -0.7940   -4.2300   -1.2850 ho        1 MOL      0.333383
     80 H33        -1.4250   -7.4010   -0.9550 hc        1 MOL      0.087920
     81 H34        -1.7090   -7.4760    0.7910 hc        1 MOL      0.087920
     82 H35        -3.0330   -6.8220   -0.2890 hc        1 MOL      0.087920
     83 N9         -0.1700   -3.6960    2.3220 n         1 MOL     -0.446897
     84 C26         1.0020   -2.8690    2.3760 c3        1 MOL     -0.144562
     85 C27         1.7890   -3.1140    1.0880 c         1 MOL      0.446597
     86 O15         2.2470   -4.2400    0.8250 o         1 MOL     -0.559492
     87 C28         1.8770   -3.1870    3.6250 c3        1 MOL      0.223054
     88 C29         1.0330   -3.1440    4.9410 c3        1 MOL      0.083744
     89 C30         2.9590   -2.0230    3.6850 c3        1 MOL     -0.234980
     90 C31         1.8190   -3.7490    6.1000 c3        1 MOL     -0.285421
     91 H36        -0.1430   -4.5730    2.8200 hn        1 MOL      0.282049
     92 H37         0.7320   -1.8250    2.4680 h1        1 MOL      0.130466
     93 H38         2.4110   -4.1290    3.5300 hc        1 MOL     -0.010151
     94 H39         0.0590   -3.6230    4.8680 hc        1 MOL     -0.012012
     95 H40         0.8130   -2.0780    5.0380 hc        1 MOL     -0.012012
     96 H41         2.5700   -1.0210    3.8220 hc        1 MOL      0.051861
     97 H42         3.6500   -2.2330    4.4960 hc        1 MOL      0.051861
     98 H43         3.5590   -1.9750    2.7660 hc        1 MOL      0.051861
     99 H44         2.6330   -3.0540    6.2960 hc        1 MOL      0.064953
    100 H45         1.1220   -3.9310    6.9240 hc        1 MOL      0.064953
    101 H46         2.2840   -4.6860    5.7990 hc        1 MOL      0.064953
    102 N10         1.9570   -2.0610    0.3220 n         1 MOL     -0.035010
    103 C32         2.6680   -1.9930   -0.9200 c3        1 MOL      0.057955
    104 C33         4.0930   -1.4990   -0.6910 c         1 MOL      0.454905
    105 O16         4.4430   -1.1020    0.3920 o         1 MOL     -0.367477
    106 C34         1.8180   -1.1840   -1.9210 c3        1 MOL     -0.463227
    107 C35         0.3680   -1.6550   -1.9870 c         1 MOL      0.931070
    108 O17        -0.5770   -0.9150   -1.7370 o         1 MOL     -0.723123
    109 O18         0.0790   -2.7790   -2.5210 o         1 MOL     -0.723123
    110 H47         1.3700   -1.2840    0.6140 hn        1 MOL     -0.066437
    111 H48         2.7240   -3.0190   -1.2610 h1        1 MOL      0.045571
    112 H49         2.3060   -1.0540   -2.8980 hc        1 MOL      0.148979
    113 H50         1.7480   -0.1840   -1.4920 hc        1 MOL      0.148979
    114 N11         4.9380   -1.5150   -1.6880 n         1 MOL     -0.610419
    115 C36         6.3490   -1.0500   -1.5630 c3        1 MOL      0.569332
    116 C37         6.4380    0.4980   -1.3510 c         1 MOL      0.238782
    117 O19         7.2080    0.7890   -0.4360 o         1 MOL     -0.509179
    118 C38         7.1540   -1.6450   -2.5940 c3        1 MOL     -0.332763
    119 C39         8.5990   -1.3800   -2.4410 ca        1 MOL      0.225562
    120 C40         9.1740   -0.2620   -3.0190 ca        1 MOL     -0.264115
    121 C41         9.4390   -2.3440   -1.7740 ca        1 MOL     -0.264115
    122 C42        10.5800   -0.0390   -2.8080 ca        1 MOL     -0.031332
    123 C43        10.7970   -2.1270   -1.7110 ca        1 MOL     -0.031332
    124 C44        11.3680   -0.9930   -2.2640 ca        1 MOL     -0.164638
    125 H51         4.5950   -1.7140   -2.6110 hn        1 MOL      0.296894
    126 H52         6.7210   -1.5390   -0.6650 h1        1 MOL      0.004380
    127 H53         6.8230   -1.2830   -3.5710 hc        1 MOL      0.077599
    128 H54         6.9640   -2.7190   -2.6630 hc        1 MOL      0.077599
    129 H55         8.5210    0.5030   -3.4050 ha        1 MOL      0.136312
    130 H56         9.1010   -3.3190   -1.4720 ha        1 MOL      0.136312
    131 H57        10.9600    0.9400   -3.0580 ha        1 MOL      0.092020
    132 H58        11.5160   -2.8480   -1.3560 ha        1 MOL      0.092020
    133 H59        12.4460   -0.9930   -2.2330 ha        1 MOL      0.100271
    134 N12         5.6650    1.4080   -1.9960 n         1 MOL     -0.034328
    135 C45         5.5250    2.8120   -1.7490 c3        1 MOL      0.026073
    136 C46         4.9970    3.0460   -0.3050 c         1 MOL      0.300561
    137 O20         4.7830    4.1330    0.1420 o         1 MOL     -0.512950
    138 C47         4.5840    3.4310   -2.8190 c3        1 MOL     -0.275539
    139 C48         4.7200    2.3660   -3.9320 c3        1 MOL      0.221230
    140 C49         4.8760    1.0990   -3.2410 c3        1 MOL     -0.028955
    141 H60         6.4870    3.3210   -1.8540 h1        1 MOL      0.089043
    142 H61         3.5350    3.4640   -2.5170 hc        1 MOL      0.111764
    143 H62         5.0120    4.4080   -3.0490 hc        1 MOL      0.111764
    144 H63         3.9140    2.3760   -4.6640 hc        1 MOL     -0.033820
    145 H64         5.6590    2.5800   -4.4250 hc        1 MOL     -0.033820
    146 H65         3.9010    0.7320   -2.9170 h1        1 MOL      0.008916
    147 H66         5.4040    0.4320   -3.9280 h1        1 MOL      0.008916
    148 N13         4.6430    2.0550    0.4890 n         1 MOL     -0.098622
    149 C50         3.9620    2.0390    1.7970 c3        1 MOL      0.041657
    150 C51         4.9180    1.3900    2.8410 c         1 MOL      0.407160
    151 O21         5.0280    1.8150    3.9660 o         1 MOL     -0.555808
    152 C52         2.5570    1.3890    1.6270 c3        1 MOL      0.135054
    153 C53         1.6680    2.0820    0.5510 c3        1 MOL     -0.112982
    154 C54         0.2660    1.4090    0.4200 c         1 MOL      0.304702
    155 O22        -0.6650    2.1070   -0.0610 o         1 MOL     -0.550238
    156 O23         0.1700    0.2260    0.8480 o         1 MOL     -0.550238
    157 H67         4.5990    1.1700    0.0160 hn        1 MOL      0.014977
    158 H68         3.7680    3.0460    2.1780 h1        1 MOL      0.061957
    159 H69         2.1070    1.4000    2.6260 hc        1 MOL     -0.004049
    160 H70         2.8400    0.3690    1.3880 hc        1 MOL     -0.004049
    161 H71         2.0980    2.0570   -0.4540 hc        1 MOL      0.096775
    162 H72         1.5840    3.1510    0.7510 hc        1 MOL      0.096775
    163 N14         5.5890    0.2980    2.4440 n         1 MOL     -0.083163
    164 C55         6.6820   -0.2800    3.1970 c3        1 MOL     -0.118898
    165 H73         6.5000   -1.3440    3.3410 h1        1 MOL      0.051292
    166 H74         7.6140   -0.1420    2.6480 h1        1 MOL      0.051292
    167 H75         6.7550    0.2110    4.1670 h1        1 MOL      0.051292
    168 H76         5.2990   -0.0820    1.5640 hn        1 MOL      0.102639
    169 Ca1        -2.2650   -0.0780   -0.0340 Ca        1 MOL      1.635870
    170 O24        -2.0410   -0.4340    2.5300 oh        1 MOL     -0.802981
    171 H77        -2.3220   -1.1300    3.1280 ho        1 MOL      0.378148
    172 H78        -1.0980   -0.3770    2.6480 ho        1 MOL      0.378148
    173 O25        -4.6930   -0.8690    1.2790 oh        1 MOL     -0.802981
    174 H79        -4.4210   -1.4690    1.9700 ho        1 MOL      0.378148
    175 H80        -4.9530   -0.0630    1.7460 ho        1 MOL      0.378148
@<TRIPOS>BOND
     1    1    2 1   
     2    1    4 1   
     3    1    5 1   
     4    1    6 1   
     5    2    3 2   
     6    2    7 1   
     7    7    8 1   
     8    7   15 1   
     9    8    9 1   
    10    8   11 1   
    11    8   16 1   
    12    9   10 2   
    13    9   19 1   
    14   11   12 1   
    15   11   17 1   
    16   11   18 1   
    17   12   13 1   
    18   12   14 1   
    19   19   20 1   
    20   19   24 1   
    21   20   21 1   
    22   20   23 1   
    23   20   25 1   
    24   21   22 2   
    25   21   29 1   
    26   23   26 1   
    27   23   27 1   
    28   23   28 1   
    29   29   30 1   
    30   29   37 1   
    31   30   31 1   
    32   30   33 1   
    33   30   38 1   
    34   31   32 2   
    35   31   41 1   
    36   33   34 1   
    37   33   39 1   
    38   33   40 1   
    39   34   35 1   
    40   34   36 1   
    41   41   42 1   
    42   41   45 1   
    43   42   43 1   
    44   42   46 1   
    45   42   47 1   
    46   43   44 2   
    47   43   48 1   
    48   48   49 1   
    49   48   56 1   
    50   49   50 1   
    51   49   52 1   
    52   49   57 1   
    53   50   51 2   
    54   50   62 1   
    55   52   53 1   
    56   52   58 1   
    57   52   59 1   
    58   53   54 1   
    59   53   55 2   
    60   54   60 1   
    61   54   61 1   
    62   62   63 1   
    63   62   66 1   
    64   63   64 1   
    65   63   67 1   
    66   63   68 1   
    67   64   65 2   
    68   64   69 1   
    69   69   70 1   
    70   69   76 1   
    71   70   71 1   
    72   70   73 1   
    73   70   77 1   
    74   71   72 2   
    75   71   83 1   
    76   73   74 1   
    77   73   75 1   
    78   73   78 1   
    79   74   80 1   
    80   74   81 1   
    81   74   82 1   
    82   75   79 1   
    83   83   84 1   
    84   83   91 1   
    85   84   85 1   
    86   84   87 1   
    87   84   92 1   
    88   85   86 2   
    89   85  102 1   
    90   87   88 1   
    91   87   89 1   
    92   87   93 1   
    93   88   90 1   
    94   88   94 1   
    95   88   95 1   
    96   89   96 1   
    97   89   97 1   
    98   89   98 1   
    99   90   99 1   
   100   90  100 1   
   101   90  101 1   
   102  102  103 1   
   103  102  110 1   
   104  103  104 1   
   105  103  106 1   
   106  103  111 1   
   107  104  105 2   
   108  104  114 1   
   109  106  107 1   
   110  106  112 1   
   111  106  113 1   
   112  107  108 1   
   113  107  109 1   
   114  114  115 1   
   115  114  125 1   
   116  115  116 1   
   117  115  118 1   
   118  115  126 1   
   119  116  117 2   
   120  116  134 1   
   121  118  119 1   
   122  118  127 1   
   123  118  128 1   
   124  119  120 ar  
   125  119  121 ar  
   126  120  122 ar  
   127  120  129 1   
   128  121  123 ar  
   129  121  130 1   
   130  122  124 ar  
   131  122  131 1   
   132  123  124 ar  
   133  123  132 1   
   134  124  133 1   
   135  134  135 1   
   136  134  140 1   
   137  135  136 1   
   138  135  138 1   
   139  135  141 1   
   140  136  137 2   
   141  136  148 1   
   142  138  139 1   
   143  138  142 1   
   144  138  143 1   
   145  139  140 1   
   146  139  144 1   
   147  139  145 1   
   148  140  146 1   
   149  140  147 1   
   150  148  149 1   
   151  148  157 1   
   152  149  150 1   
   153  149  152 1   
   154  149  158 1   
   155  150  151 2   
   156  150  163 1   
   157  152  153 1   
   158  152  159 1   
   159  152  160 1   
   160  153  154 1   
   161  153  161 1   
   162  153  162 1   
   163  154  155 1   
   164  154  156 1   
   165  163  164 1   
   166  163  168 1   
   167  164  165 1   
   168  164  166 1   
   169  164  167 1   
   170  170  171 1   
   171  170  172 1   
   172  173  174 1   
   173  173  175 1   
@<TRIPOS>SUBSTRUCTURE
     1 MOL         1 TEMP              0 ****  ****    0 ROOT
