@<TRIPOS>MOLECULE
MOL
  178   175     1     0     0
SMALL
resp


@<TRIPOS>ATOM
      1 C1         -0.3740   -3.4120    5.8340 c3        1 MOL     -0.344223
      2 C2         -0.2350   -3.3190    4.3310 c         1 MOL      0.761762
      3 O1         -1.1680   -3.3100    3.5630 o         1 MOL     -0.601977
      4 H1          0.0260   -2.5070    6.2910 hc        1 MOL      0.082864
      5 H2         -1.4270   -3.5170    6.0970 hc        1 MOL      0.082864
      6 H3          0.1800   -4.2780    6.1980 hc        1 MOL      0.082864
      7 N1          1.0030   -3.2560    3.8390 n         1 MOL     -0.564994
      8 C3          1.4310   -3.0020    2.4300 c3        1 MOL      0.067740
      9 C4          1.9860   -4.3340    1.8570 c         1 MOL      0.678334
     10 O2          2.5240   -5.1810    2.5020 o         1 MOL     -0.588751
     11 C5          2.5730   -2.0340    2.3890 c3        1 MOL     -0.081107
     12 C6          2.7960   -1.3810    1.0740 c         1 MOL      0.751473
     13 O3          2.4690   -0.1880    0.9070 o         1 MOL     -0.725668
     14 O4          3.2080   -2.0610    0.1470 o         1 MOL     -0.725668
     15 H4          1.7720   -3.4190    4.4770 hn        1 MOL      0.268341
     16 H5          0.5660   -2.6480    1.8700 h1        1 MOL      0.058129
     17 H6          3.5210   -2.4830    2.7010 hc        1 MOL      0.014921
     18 H7          2.3500   -1.2220    3.0740 hc        1 MOL      0.014921
     19 N2          1.6300   -4.5520    0.5620 n         1 MOL     -0.530190
     20 C7          2.1810   -5.6950   -0.1570 c3        1 MOL      0.188811
     21 C8          3.6910   -5.7180   -0.3540 c         1 MOL      0.454207
     22 O5          4.2280   -6.7950   -0.5620 o         1 MOL     -0.554629
     23 C9          1.5170   -5.8040   -1.5600 c3        1 MOL     -0.117402
     24 H8          1.3610   -3.7730   -0.0260 hn        1 MOL      0.257252
     25 H9          1.8380   -6.6090    0.3410 h1        1 MOL      0.035258
     26 H10         1.7010   -6.8200   -1.9050 hc        1 MOL      0.033720
     27 H11         0.4380   -5.7800   -1.4400 hc        1 MOL      0.033720
     28 H12         1.8000   -5.0460   -2.2860 hc        1 MOL      0.033720
     29 N3          4.3050   -4.5040   -0.4010 n         1 MOL     -0.356967
     30 C10         5.6070   -4.3530   -1.0590 c3        1 MOL      0.091756
     31 C11         6.5760   -3.3950   -0.3310 c         1 MOL      0.361800
     32 O6          7.7800   -3.4330   -0.4820 o         1 MOL     -0.513464
     33 C12         5.4010   -3.8960   -2.5240 c3        1 MOL     -0.103534
     34 C13         4.5830   -2.6180   -2.5250 c         1 MOL      0.777010
     35 O7          3.2950   -2.5700   -2.7360 o         1 MOL     -0.771043
     36 O8          5.2550   -1.5620   -2.6550 o         1 MOL     -0.771043
     37 H13         3.8070   -3.6450   -0.2050 hn        1 MOL      0.228045
     38 H14         6.1890   -5.2780   -1.0950 h1        1 MOL      0.063622
     39 H15         4.7600   -4.6050   -3.0440 hc        1 MOL      0.032341
     40 H16         6.3300   -3.7530   -3.0720 hc        1 MOL      0.032341
     41 N4          6.0140   -2.4970    0.4950 n         1 MOL     -0.013945
     42 C14         6.8040   -1.5160    1.2390 c3        1 MOL     -0.110990
     43 C15         7.4340   -0.3290    0.4530 c         1 MOL      0.429190
     44 O9          8.6030    0.0540    0.6450 o         1 MOL     -0.555403
     45 H17         5.0080   -2.5760    0.5310 hn        1 MOL     -0.041809
     46 H18         7.5360   -2.1120    1.7850 h1        1 MOL      0.063623
     47 H19         6.1940   -0.9820    1.9710 h1        1 MOL      0.063623
     48 N5          6.6410    0.3520   -0.4080 n         1 MOL     -0.099212
     49 C16         7.0170    1.6070   -1.0490 c3        1 MOL     -0.093152
     50 C17         7.0440    2.8880   -0.2160 c         1 MOL      0.408373
     51 O10         7.3570    3.9440   -0.7290 o         1 MOL     -0.497479
     52 C18         6.0940    1.7670   -2.2420 c3        1 MOL     -0.404204
     53 C19         4.6710    2.0880   -1.7470 c         1 MOL      0.577416
     54 N6          4.1540    3.2840   -1.9020 n         1 MOL     -0.656992
     55 O11         3.9640    1.1970   -1.2280 o         1 MOL     -0.674419
     56 H20         5.8290   -0.1150   -0.7690 hn        1 MOL      0.244043
     57 H21         8.0210    1.4300   -1.4410 h1        1 MOL      0.138204
     58 H22         6.1780    0.8130   -2.7630 hc        1 MOL      0.156472
     59 H23         6.4390    2.6200   -2.8350 hc        1 MOL      0.156472
     60 H24         4.6680    4.0260   -2.3370 hn        1 MOL      0.337828
     61 H25         3.3460    3.5770   -1.3800 hn        1 MOL      0.337828
     62 N7          6.4280    2.9120    0.9950 n         1 MOL     -0.171677
     63 C20         6.3250    4.0180    1.8960 c3        1 MOL     -0.260896
     64 C21         5.0290    4.7920    1.8330 c         1 MOL      0.743734
     65 O12         5.0630    5.8380    2.4140 o         1 MOL     -0.586528
     66 H26         5.8740    2.1120    1.2650 hn        1 MOL      0.188668
     67 H27         7.1300    4.7020    1.6370 h1        1 MOL      0.120534
     68 H28         6.4320    3.6320    2.9110 h1        1 MOL      0.120534
     69 N8          3.9540    4.3210    1.1280 n         1 MOL     -0.454375
     70 C22         2.6410    5.0620    1.0430 c3        1 MOL     -0.389161
     71 C23         1.5650    4.0290    0.5630 c         1 MOL      0.772552
     72 O13         1.7710    3.4200   -0.4880 o         1 MOL     -0.568008
     73 C24         2.6380    6.1820   -0.0050 c3        1 MOL      0.383556
     74 C25         3.0520    7.5260    0.6600 c3        1 MOL     -0.399212
     75 O14         3.5580    6.0680   -1.0600 oh        1 MOL     -0.608461
     76 H29         3.9160    3.3830    0.7540 hn        1 MOL      0.348721
     77 H30         2.3590    5.4850    2.0020 h1        1 MOL      0.185240
     78 H31         1.6640    6.2900   -0.4840 h1        1 MOL      0.008939
     79 H32         3.6260    6.9380   -1.4580 ho        1 MOL      0.394344
     80 H33         3.9810    7.3820    1.2210 hc        1 MOL      0.104228
     81 H34         3.1990    8.3380   -0.0440 hc        1 MOL      0.104228
     82 H35         2.2620    7.7950    1.3660 hc        1 MOL      0.104228
     83 N9          0.5410    3.8080    1.3870 n         1 MOL     -0.539502
     84 C26        -0.4270    2.6840    1.1870 c3        1 MOL      0.040642
     85 C27        -1.5350    3.1810    0.2700 c         1 MOL      0.324753
     86 O15        -2.0190    4.3270    0.2500 o         1 MOL     -0.559035
     87 C28        -0.9610    2.2380    2.5490 c3        1 MOL      0.200860
     88 C29        -1.7110    3.3230    3.4210 c3        1 MOL     -0.172566
     89 C30         0.2290    1.6710    3.3520 c3        1 MOL     -0.340964
     90 C31        -2.2930    2.8770    4.8080 c3        1 MOL     -0.095400
     91 H36         0.5680    4.4050    2.1980 hn        1 MOL      0.300221
     92 H37         0.0070    1.8500    0.6450 h1        1 MOL      0.154617
     93 H38        -1.6460    1.3940    2.4000 hc        1 MOL     -0.059819
     94 H39        -2.5610    3.7460    2.8830 hc        1 MOL      0.049875
     95 H40        -1.0650    4.1920    3.5530 hc        1 MOL      0.049875
     96 H41        -0.2780    1.1920    4.1890 hc        1 MOL      0.077223
     97 H42         0.7510    0.9570    2.7170 hc        1 MOL      0.077223
     98 H43         0.9780    2.3830    3.7040 hc        1 MOL      0.077223
     99 H44        -1.4960    2.5140    5.4480 hc        1 MOL      0.033153
    100 H45        -2.8500    3.6280    5.3670 hc        1 MOL      0.033153
    101 H46        -2.9290    1.9900    4.7200 hc        1 MOL      0.033153
    102 N10        -1.8610    2.2650   -0.5670 n         1 MOL     -0.035978
    103 C32        -3.0200    2.2710   -1.4290 c3        1 MOL      0.061408
    104 C33        -4.3070    1.8070   -0.7050 c         1 MOL      0.499750
    105 O16        -4.3110    1.4330    0.4260 o         1 MOL     -0.449768
    106 C34        -2.5450    1.2950   -2.5770 c3        1 MOL     -0.252063
    107 C35        -3.5140    1.2270   -3.6740 c         1 MOL      0.774978
    108 O17        -3.5240    0.2590   -4.4560 o         1 MOL     -0.735055
    109 O18        -4.3270    2.1620   -3.8840 o         1 MOL     -0.735055
    110 H47        -1.3730    1.3830   -0.5220 hn        1 MOL     -0.041009
    111 H48        -3.2530    3.2100   -1.9430 h1        1 MOL      0.050272
    112 H49        -2.3960    0.2670   -2.2330 hc        1 MOL      0.066525
    113 H50        -1.6480    1.6990   -3.0490 hc        1 MOL      0.066525
    114 N11        -5.4720    1.7070   -1.3820 n         1 MOL     -0.536869
    115 C36        -6.7620    1.3670   -0.7720 c3        1 MOL      0.284589
    116 C37        -6.9860   -0.0680   -0.3570 c         1 MOL      0.607010
    117 O19        -7.5390   -0.1610    0.7360 o         1 MOL     -0.564441
    118 C38        -7.8590    1.7570   -1.7450 c3        1 MOL     -0.216741
    119 C39        -9.2750    1.3080   -1.4280 ca        1 MOL      0.088504
    120 C40        -9.8800    1.9220   -0.3270 ca        1 MOL     -0.199932
    121 C41        -9.8680    0.2280   -2.1060 ca        1 MOL     -0.199932
    122 C42       -11.1800    1.4760   -0.0110 ca        1 MOL     -0.065150
    123 C43       -11.1360   -0.2390   -1.6650 ca        1 MOL     -0.065150
    124 C44       -11.8120    0.4230   -0.6640 ca        1 MOL     -0.164788
    125 H51        -5.5410    2.0020   -2.3460 hn        1 MOL      0.248081
    126 H52        -6.8140    1.9370    0.1550 h1        1 MOL      0.021705
    127 H53        -7.5230    1.2250   -2.6340 hc        1 MOL      0.079836
    128 H54        -7.8920    2.8300   -1.9310 hc        1 MOL      0.079836
    129 H55        -9.4640    2.7700    0.2020 ha        1 MOL      0.128991
    130 H56        -9.3360   -0.2920   -2.8890 ha        1 MOL      0.128991
    131 H57       -11.6580    1.9170    0.8500 ha        1 MOL      0.090832
    132 H58       -11.5340   -1.1420   -2.1170 ha        1 MOL      0.090832
    133 H59       -12.7840    0.1120   -0.2940 ha        1 MOL      0.104087
    134 N12        -6.5860   -1.1230   -1.0520 n         1 MOL     -0.217212
    135 C45        -6.6630   -2.4140   -0.4930 c3        1 MOL     -0.005165
    136 C46        -5.7080   -2.5240    0.7020 c         1 MOL      0.370399
    137 O20        -6.0550   -3.2520    1.6430 o         1 MOL     -0.512762
    138 C47        -6.3430   -3.3520   -1.6340 c3        1 MOL     -0.124059
    139 C48        -5.3590   -2.5630   -2.5540 c3        1 MOL      0.027194
    140 C49        -5.8730   -1.1390   -2.3420 c3        1 MOL     -0.015397
    141 H60        -7.6360   -2.6870   -0.0640 h1        1 MOL      0.071344
    142 H61        -5.8800   -4.2960   -1.3650 hc        1 MOL      0.050093
    143 H62        -7.2170   -3.6650   -2.2030 hc        1 MOL      0.050093
    144 H63        -4.3590   -2.5760   -2.1350 hc        1 MOL      0.024392
    145 H64        -5.2770   -2.9520   -3.5640 hc        1 MOL      0.024392
    146 H65        -4.9680   -0.5290   -2.3080 h1        1 MOL      0.040197
    147 H66        -6.5460   -0.8750   -3.1610 h1        1 MOL      0.040197
    148 N13        -4.5570   -1.8450    0.7290 n         1 MOL     -0.222491
    149 C50        -3.5890   -1.7320    1.8390 c3        1 MOL     -0.322986
    150 C51        -4.1460   -0.9610    3.0420 c         1 MOL      0.526317
    151 O21        -4.0120   -1.3140    4.2450 o         1 MOL     -0.588341
    152 C52        -2.3800   -1.0900    1.2020 c3        1 MOL      0.047882
    153 C53        -1.9220   -1.7900   -0.0480 c3        1 MOL      0.036816
    154 C54        -0.5400   -1.3710   -0.5470 c         1 MOL      0.581749
    155 O22        -0.3050   -0.1630   -0.7820 o         1 MOL     -0.672598
    156 O23         0.2720   -2.3070   -0.7990 o         1 MOL     -0.672598
    157 H67        -4.4970   -1.2460   -0.0840 hn        1 MOL      0.305804
    158 H68        -3.2950   -2.7290    2.1730 h1        1 MOL      0.202564
    159 H69        -1.6080   -1.0460    1.9670 hc        1 MOL      0.104543
    160 H70        -2.6240   -0.0630    0.9080 hc        1 MOL      0.104543
    161 H71        -2.6740   -1.8620   -0.8280 hc        1 MOL     -0.016834
    162 H72        -1.8330   -2.8480    0.1880 hc        1 MOL     -0.016834
    163 N14        -4.9490    0.0590    2.8450 n         1 MOL     -0.034838
    164 C55        -5.8180    0.7110    3.9170 c3        1 MOL     -0.170043
    165 H73        -5.4240    1.7000    4.1520 h1        1 MOL      0.076224
    166 H74        -6.8390    0.8070    3.5490 h1        1 MOL      0.076224
    167 H75        -5.8110    0.0940    4.8160 h1        1 MOL      0.076224
    168 H76        -5.0450    0.3470    1.8850 hn        1 MOL      0.041721
    169 Ca1         2.1460   -0.6100   -1.7180 Ca        1 MOL      1.802974
    170 O24         3.4810   -0.1890   -4.2970 oh        1 MOL     -0.787076
    171 H77         3.7360   -0.0960   -5.2100 ho        1 MOL      0.388697
    172 H78         4.1300   -0.7870   -3.9200 ho        1 MOL      0.388697
    173 O25         0.4880   -1.1340   -3.8190 oh        1 MOL     -0.787076
    174 H79         0.4450   -0.6070   -4.6120 ho        1 MOL      0.388697
    175 H80        -0.4260   -1.2870   -3.5830 ho        1 MOL      0.388697
    176 O26         1.5340    1.7480   -2.9220 oh        1 MOL     -0.787076
    177 H81         1.5660    2.4210   -2.2450 ho        1 MOL      0.388697
    178 H82         1.4070    2.2390   -3.7440 ho        1 MOL      0.388697
@<TRIPOS>BOND
     1    1    2 1   
     2    1    4 1   
     3    1    5 1   
     4    1    6 1   
     5    2    3 2   
     6    2    7 1   
     7    7    8 1   
     8    7   15 1   
     9    8    9 1   
    10    8   11 1   
    11    8   16 1   
    12    9   10 2   
    13    9   19 1   
    14   11   12 1   
    15   11   17 1   
    16   11   18 1   
    17   12   13 1   
    18   12   14 1   
    19   19   20 1   
    20   19   24 1   
    21   20   21 1   
    22   20   23 1   
    23   20   25 1   
    24   21   22 2   
    25   21   29 1   
    26   23   26 1   
    27   23   27 1   
    28   23   28 1   
    29   29   30 1   
    30   29   37 1   
    31   30   31 1   
    32   30   33 1   
    33   30   38 1   
    34   31   32 2   
    35   31   41 1   
    36   33   34 1   
    37   33   39 1   
    38   33   40 1   
    39   34   35 1   
    40   34   36 1   
    41   41   42 1   
    42   41   45 1   
    43   42   43 1   
    44   42   46 1   
    45   42   47 1   
    46   43   44 2   
    47   43   48 1   
    48   48   49 1   
    49   48   56 1   
    50   49   50 1   
    51   49   52 1   
    52   49   57 1   
    53   50   51 2   
    54   50   62 1   
    55   52   53 1   
    56   52   58 1   
    57   52   59 1   
    58   53   54 1   
    59   53   55 2   
    60   54   60 1   
    61   54   61 1   
    62   62   63 1   
    63   62   66 1   
    64   63   64 1   
    65   63   67 1   
    66   63   68 1   
    67   64   65 2   
    68   64   69 1   
    69   69   70 1   
    70   69   76 1   
    71   70   71 1   
    72   70   73 1   
    73   70   77 1   
    74   71   72 2   
    75   71   83 1   
    76   73   74 1   
    77   73   75 1   
    78   73   78 1   
    79   74   80 1   
    80   74   81 1   
    81   74   82 1   
    82   75   79 1   
    83   83   84 1   
    84   83   91 1   
    85   84   85 1   
    86   84   87 1   
    87   84   92 1   
    88   85   86 2   
    89   85  102 1   
    90   87   88 1   
    91   87   89 1   
    92   87   93 1   
    93   88   90 1   
    94   88   94 1   
    95   88   95 1   
    96   89   96 1   
    97   89   97 1   
    98   89   98 1   
    99   90   99 1   
   100   90  100 1   
   101   90  101 1   
   102  102  103 1   
   103  102  110 1   
   104  103  104 1   
   105  103  106 1   
   106  103  111 1   
   107  104  105 2   
   108  104  114 1   
   109  106  107 1   
   110  106  112 1   
   111  106  113 1   
   112  107  108 1   
   113  107  109 1   
   114  114  115 1   
   115  114  125 1   
   116  115  116 1   
   117  115  118 1   
   118  115  126 1   
   119  116  117 2   
   120  116  134 1   
   121  118  119 1   
   122  118  127 1   
   123  118  128 1   
   124  119  120 ar  
   125  119  121 ar  
   126  120  122 ar  
   127  120  129 1   
   128  121  123 ar  
   129  121  130 1   
   130  122  124 ar  
   131  122  131 1   
   132  123  124 ar  
   133  123  132 1   
   134  124  133 1   
   135  134  135 1   
   136  134  140 1   
   137  135  136 1   
   138  135  138 1   
   139  135  141 1   
   140  136  137 2   
   141  136  148 1   
   142  138  139 1   
   143  138  142 1   
   144  138  143 1   
   145  139  140 1   
   146  139  144 1   
   147  139  145 1   
   148  140  146 1   
   149  140  147 1   
   150  148  149 1   
   151  148  157 1   
   152  149  150 1   
   153  149  152 1   
   154  149  158 1   
   155  150  151 2   
   156  150  163 1   
   157  152  153 1   
   158  152  159 1   
   159  152  160 1   
   160  153  154 1   
   161  153  161 1   
   162  153  162 1   
   163  154  155 1   
   164  154  156 1   
   165  163  164 1   
   166  163  168 1   
   167  164  165 1   
   168  164  166 1   
   169  164  167 1   
   170  170  171 1   
   171  170  172 1   
   172  173  174 1   
   173  173  175 1   
   174  176  177 1   
   175  176  178 1   
@<TRIPOS>SUBSTRUCTURE
     1 MOL         1 TEMP              0 ****  ****    0 ROOT
