@<TRIPOS>MOLECULE
MOL
  179   176     1     0     0
SMALL
resp


@<TRIPOS>ATOM
      1 C1          1.8750    3.5390    5.9850 c3        1 MOL     -0.294897
      2 C2          1.4150    3.1390    4.5630 c         1 MOL      0.668778
      3 O1          2.2540    2.8160    3.6940 o         1 MOL     -0.613551
      4 H1          1.8210    2.6710    6.6410 hc        1 MOL      0.083343
      5 H2          2.9020    3.9020    5.9470 hc        1 MOL      0.083343
      6 H3          1.2260    4.3260    6.3700 hc        1 MOL      0.083343
      7 N1          0.1140    2.9860    4.2680 n         1 MOL     -0.568727
      8 C3         -0.5650    2.6550    2.9410 c3        1 MOL      0.091972
      9 C4         -0.7410    3.9560    2.0630 c         1 MOL      0.536717
     10 O2         -1.4400    4.9350    2.4560 o         1 MOL     -0.552062
     11 C5         -1.9480    1.9480    3.1150 c3        1 MOL     -0.460544
     12 C6         -2.6310    1.4490    1.7950 c         1 MOL      0.962210
     13 O3         -3.7570    0.8450    1.8780 o         1 MOL     -0.789979
     14 O4         -2.1340    1.6100    0.6640 o         1 MOL     -0.789979
     15 H4         -0.4250    2.9270    5.1220 hn        1 MOL      0.322933
     16 H5          0.0860    2.0410    2.3210 h1        1 MOL      0.010567
     17 H6         -2.5310    2.7170    3.6080 hc        1 MOL      0.129436
     18 H7         -1.7160    1.0370    3.6650 hc        1 MOL      0.129436
     19 N2         -0.1040    4.0220    0.9090 n         1 MOL     -0.281724
     20 C7         -0.0380    5.2310    0.0470 c3        1 MOL     -0.014125
     21 C8         -1.3160    5.5740   -0.7270 c         1 MOL      0.493163
     22 O5         -1.8350    6.6260   -0.4810 o         1 MOL     -0.506744
     23 C9          1.1900    5.2070   -0.8640 c3        1 MOL      0.006774
     24 C10         2.5020    5.4140   -0.0660 c3        1 MOL      0.045362
     25 C11         3.6940    5.4720   -0.9860 c3        1 MOL     -0.197553
     26 C12         5.0380    5.3120   -0.1750 c3        1 MOL      0.187544
     27 N3          6.1830    5.5810   -1.0700 n4        1 MOL     -0.418324
     28 H8          0.3280    3.1680    0.5600 hn        1 MOL      0.223941
     29 H9          0.0720    6.0350    0.7790 h1        1 MOL      0.073683
     30 H10         1.1240    6.0410   -1.5590 hc        1 MOL      0.019783
     31 H11         1.2470    4.2370   -1.3720 hc        1 MOL      0.019783
     32 H12         2.6160    4.6640    0.7180 hc        1 MOL      0.019707
     33 H13         2.3410    6.3970    0.3870 hc        1 MOL      0.019707
     34 H14         3.7130    6.4620   -1.4530 hc        1 MOL      0.057808
     35 H15         3.5280    4.7530   -1.7790 hc        1 MOL      0.057808
     36 H16         5.1280    4.2930    0.1880 hx        1 MOL      0.062478
     37 H17         5.1040    5.9750    0.6960 hx        1 MOL      0.062478
     38 H18         7.0520    5.3830   -0.5850 hn        1 MOL      0.335653
     39 H19         6.2170    5.0340   -1.9090 hn        1 MOL      0.335653
     40 H20         6.1340    6.5330   -1.4090 hn        1 MOL      0.335653
     41 N4         -1.7650    4.7000   -1.6660 n         1 MOL     -0.500917
     42 C13        -3.0610    5.0090   -2.2700 c3        1 MOL      0.139775
     43 C14        -4.2760    4.6480   -1.3340 c         1 MOL      0.390387
     44 O6         -5.3620    5.1480   -1.6660 o         1 MOL     -0.535011
     45 C15        -3.1910    4.3040   -3.6110 c3        1 MOL     -0.229894
     46 C16        -2.8540    2.8030   -3.6070 c         1 MOL      0.702325
     47 O7         -2.9350    2.1280   -4.6880 o         1 MOL     -0.708730
     48 O8         -2.4680    2.2450   -2.5450 o         1 MOL     -0.708730
     49 H21        -1.2820    3.8430   -1.8740 hn        1 MOL      0.253907
     50 H22        -3.1600    6.0820   -2.4200 h1        1 MOL      0.077584
     51 H23        -2.5860    4.8270   -4.3530 hc        1 MOL      0.072538
     52 H24        -4.2380    4.4470   -3.9010 hc        1 MOL      0.072538
     53 N5         -4.1710    3.8800   -0.2470 n         1 MOL     -0.116129
     54 C17        -5.3030    3.5800    0.6240 c3        1 MOL     -0.058818
     55 C18        -6.1760    2.3930    0.1320 c         1 MOL      0.338034
     56 O9         -7.4150    2.4690    0.4480 o         1 MOL     -0.538281
     57 H25        -3.3130    3.5020    0.1210 hn        1 MOL      0.167725
     58 H26        -5.9130    4.4830    0.7490 h1        1 MOL      0.083313
     59 H27        -4.9180    3.3820    1.6230 h1        1 MOL      0.083313
     60 N6         -5.6430    1.4490   -0.6140 n         1 MOL      0.040131
     61 C19        -6.4130    0.2530   -1.0090 c3        1 MOL     -0.194341
     62 C20        -6.5350   -0.7750    0.0870 c         1 MOL      0.366590
     63 O10        -7.2770   -1.7150   -0.1880 o         1 MOL     -0.468746
     64 C21        -5.8810   -0.3200   -2.3780 c3        1 MOL     -0.148083
     65 C22        -4.4470   -0.9570   -2.3250 c         1 MOL      0.778262
     66 N7         -4.0610   -1.6290   -3.3820 n         1 MOL     -0.897070
     67 O11        -3.6150   -0.7900   -1.3600 o         1 MOL     -0.645948
     68 H28        -4.7400    1.5880   -1.0530 hn        1 MOL      0.079241
     69 H29        -7.4020    0.6530   -1.2310 h1        1 MOL      0.147771
     70 H30        -5.9160    0.5940   -2.9680 hc        1 MOL      0.094080
     71 H31        -6.5480   -1.0660   -2.8170 hc        1 MOL      0.094080
     72 H32        -4.6170   -2.0430   -4.1090 hn        1 MOL      0.401698
     73 H33        -3.0770   -1.8050   -3.5110 hn        1 MOL      0.401698
     74 N8         -5.9690   -0.6930    1.2790 n         1 MOL     -0.216512
     75 C23        -6.0340   -1.7860    2.2860 c3        1 MOL     -0.255052
     76 C24        -4.8780   -2.8030    2.2170 c         1 MOL      0.521152
     77 O12        -4.9900   -3.9560    2.7000 o         1 MOL     -0.527380
     78 H34        -5.3720    0.0810    1.5300 hn        1 MOL      0.303041
     79 H35        -6.9240   -2.4070    2.1850 h1        1 MOL      0.135704
     80 H36        -5.9720   -1.3540    3.2830 h1        1 MOL      0.135704
     81 N9         -3.7800   -2.4580    1.5020 n         1 MOL     -0.274859
     82 C25        -2.6280   -3.3760    1.3230 c3        1 MOL      0.229466
     83 C26        -1.3210   -2.5840    1.2360 c         1 MOL      0.445504
     84 O13        -1.2640   -1.5980    0.5210 o         1 MOL     -0.544378
     85 C27        -2.7650   -4.1670    0.0360 c3        1 MOL      0.207665
     86 C28        -4.0610   -4.9960   -0.0970 ca        1 MOL     -0.208417
     87 C29        -5.0590   -4.4610   -0.8880 ca        1 MOL     -0.007607
     88 C30        -4.2990   -6.2800    0.4320 ca        1 MOL     -0.007607
     89 C31        -6.2920   -5.0990   -1.0500 ca        1 MOL     -0.405625
     90 C32        -5.5000   -6.9560    0.3420 ca        1 MOL     -0.405625
     91 C33        -6.5230   -6.3040   -0.3330 ca        1 MOL      0.520855
     92 O14        -7.7310   -6.8610   -0.2680 oh        1 MOL     -0.516526
     93 H37        -3.5650   -1.4860    1.3740 hn        1 MOL      0.181022
     94 H38        -2.5740   -4.0040    2.2090 h1        1 MOL     -0.026585
     95 H39        -1.9010   -4.8270    0.0330 hc        1 MOL     -0.062828
     96 H40        -2.6640   -3.5400   -0.8460 hc        1 MOL     -0.062828
     97 H41        -4.7720   -3.5580   -1.4130 ha        1 MOL      0.095476
     98 H42        -3.4830   -6.7350    0.9680 ha        1 MOL      0.095476
     99 H43        -7.1070   -4.7700   -1.6720 ha        1 MOL      0.170738
    100 H44        -5.6520   -7.9030    0.8380 ha        1 MOL      0.170738
    101 H45        -7.6940   -7.7320    0.1210 ho        1 MOL      0.365383
    102 N10        -0.3490   -2.9160    2.0600 n         1 MOL     -0.547626
    103 C34         1.0610   -2.4040    1.9060 c3        1 MOL     -0.058787
    104 C35         1.8000   -3.3710    0.9860 c         1 MOL      0.622462
    105 O15         2.0370   -4.5080    1.3210 o         1 MOL     -0.553284
    106 C36         1.7550   -2.2380    3.2770 c3        1 MOL     -0.032506
    107 C37         1.2250   -1.0020    4.0050 c3        1 MOL      0.174956
    108 C38         3.3080   -1.9840    3.1790 c3        1 MOL     -0.054996
    109 C39         1.5970   -0.7450    5.4130 c3        1 MOL     -0.401370
    110 H46        -0.4840   -3.6900    2.7080 hn        1 MOL      0.345298
    111 H47         1.0130   -1.3900    1.5020 h1        1 MOL      0.079220
    112 H48         1.7330   -3.1940    3.8090 hc        1 MOL      0.043274
    113 H49         0.1390   -1.0830    4.0980 hc        1 MOL      0.024316
    114 H50         1.5640   -0.1070    3.4910 hc        1 MOL      0.024316
    115 H51         3.7190   -2.8330    2.6360 hc        1 MOL      0.011436
    116 H52         3.4000   -1.1370    2.4930 hc        1 MOL      0.011436
    117 H53         3.8620   -1.8120    4.0910 hc        1 MOL      0.011436
    118 H54         0.8550   -0.0420    5.7730 hc        1 MOL      0.097119
    119 H55         1.6650   -1.6320    6.0500 hc        1 MOL      0.097119
    120 H56         2.5420   -0.2060    5.3760 hc        1 MOL      0.097119
    121 N11         2.1570   -3.0010   -0.2170 n         1 MOL     -0.172816
    122 C40         3.0550   -3.7070   -1.1730 c3        1 MOL     -0.312520
    123 C41         4.5220   -3.7360   -0.7010 c         1 MOL      0.552782
    124 O16         4.8930   -3.2080    0.3050 o         1 MOL     -0.390928
    125 C42         2.9990   -2.8980   -2.4730 c3        1 MOL      0.135189
    126 O17         3.2790   -1.5440   -2.2730 oh        1 MOL     -0.582009
    127 H57         1.7900   -2.0880   -0.4400 hn        1 MOL      0.088608
    128 H58         2.7330   -4.7350   -1.3250 h1        1 MOL      0.139218
    129 H59         2.0320   -2.9880   -2.9620 h1        1 MOL      0.040218
    130 H60         3.6430   -3.2510   -3.2830 h1        1 MOL      0.040218
    131 H61         2.5840   -1.2820   -1.6580 ho        1 MOL      0.448241
    132 N12         5.3890   -4.3780   -1.4520 n         1 MOL     -0.393636
    133 C43         6.8660   -4.4110   -1.1670 c3        1 MOL      0.012126
    134 C44         7.4970   -2.9950   -1.3180 c         1 MOL      0.444822
    135 O18         8.2770   -2.6710   -0.4180 o         1 MOL     -0.489063
    136 C45         7.4790   -5.5420   -1.9860 c3        1 MOL     -0.133500
    137 H62         5.0620   -4.8720   -2.2740 hn        1 MOL      0.254040
    138 H63         7.1020   -4.7160   -0.1470 h1        1 MOL      0.118348
    139 H64         8.5060   -5.8050   -1.7360 hc        1 MOL      0.054940
    140 H65         6.9070   -6.4400   -1.7840 hc        1 MOL      0.054940
    141 H66         7.4950   -5.4760   -3.0720 hc        1 MOL      0.054940
    142 N13         7.0420   -2.2300   -2.3060 n         1 MOL     -0.340703
    143 C46         7.4440   -0.8500   -2.5940 c3        1 MOL      0.178332
    144 C47         7.0300    0.1580   -1.5190 c         1 MOL      0.240853
    145 O19         7.7830    1.0680   -1.1810 o         1 MOL     -0.511797
    146 C48         6.8150   -0.4020   -3.9700 c3        1 MOL     -0.439135
    147 H67         6.5420   -2.7090   -3.0350 hn        1 MOL      0.258334
    148 H68         8.5210   -0.9860   -2.6400 h1        1 MOL      0.078480
    149 H69         7.4480   -0.8010   -4.7610 hc        1 MOL      0.129966
    150 H70         5.8040   -0.7890   -4.0150 hc        1 MOL      0.129966
    151 H71         6.7860    0.6900   -4.0370 hc        1 MOL      0.129966
    152 N14         5.8840   -0.0630   -0.9340 n         1 MOL      0.127011
    153 C49         5.3590    0.7590    0.1800 c3        1 MOL     -0.186791
    154 C50         6.1000    0.3850    1.4700 c         1 MOL      0.464078
    155 O20         6.4280    1.2790    2.2250 o         1 MOL     -0.550727
    156 C51         3.8400    0.6450    0.3730 c3        1 MOL      0.041438
    157 C52         3.0420    1.2380   -0.7520 c3        1 MOL     -0.005275
    158 C53         1.5770    0.8250   -0.6520 c         1 MOL      0.561094
    159 O21         1.2990   -0.3560   -0.8700 o         1 MOL     -0.616660
    160 O22         0.7180    1.7360   -0.5430 o         1 MOL     -0.616660
    161 H72         5.4470   -0.9590   -1.1050 hn        1 MOL     -0.033268
    162 H73         5.5120    1.8230    0.0130 h1        1 MOL      0.087946
    163 H74         3.5190    1.0630    1.3180 hc        1 MOL      0.073952
    164 H75         3.5820   -0.4050    0.4300 hc        1 MOL      0.073952
    165 H76         3.5700    1.0060   -1.6740 hc        1 MOL     -0.037702
    166 H77         3.0260    2.3220   -0.6650 hc        1 MOL     -0.037702
    167 N15         6.4820   -0.8900    1.6330 n         1 MOL     -0.044316
    168 C54         7.3040   -1.3760    2.8220 c3        1 MOL     -0.365322
    169 H78         7.4710   -2.4490    2.7330 h1        1 MOL      0.142574
    170 H79         8.2630   -0.8580    2.8360 h1        1 MOL      0.142574
    171 H80         6.7640   -1.1680    3.7460 h1        1 MOL      0.142574
    172 H81         6.1440   -1.5780    0.9810 hn        1 MOL      0.085818
    173 Ca1        -1.3250    0.2730   -1.4290 Ca        1 MOL      1.717647
    174 O23         0.0910    0.8550   -3.6610 oh        1 MOL     -0.897429
    175 H82         0.9780    0.6670   -3.9470 ho        1 MOL      0.439508
    176 H83        -0.2150    1.5580   -4.2280 ho        1 MOL      0.439508
    177 O24        -0.8020   -1.8170   -2.9660 oh        1 MOL     -0.897429
    178 H84        -1.0780   -2.7290   -2.9100 ho        1 MOL      0.439508
    179 H85        -0.1020   -1.8170   -3.6210 ho        1 MOL      0.439508
@<TRIPOS>BOND
     1    1    2 1   
     2    1    4 1   
     3    1    5 1   
     4    1    6 1   
     5    2    3 2   
     6    2    7 1   
     7    7    8 1   
     8    7   15 1   
     9    8    9 1   
    10    8   11 1   
    11    8   16 1   
    12    9   10 2   
    13    9   19 1   
    14   11   12 1   
    15   11   17 1   
    16   11   18 1   
    17   12   13 1   
    18   12   14 1   
    19   19   20 1   
    20   19   28 1   
    21   20   21 1   
    22   20   23 1   
    23   20   29 1   
    24   21   22 2   
    25   21   41 1   
    26   23   24 1   
    27   23   30 1   
    28   23   31 1   
    29   24   25 1   
    30   24   32 1   
    31   24   33 1   
    32   25   26 1   
    33   25   34 1   
    34   25   35 1   
    35   26   27 1   
    36   26   36 1   
    37   26   37 1   
    38   27   38 1   
    39   27   39 1   
    40   27   40 1   
    41   41   42 1   
    42   41   49 1   
    43   42   43 1   
    44   42   45 1   
    45   42   50 1   
    46   43   44 2   
    47   43   53 1   
    48   45   46 1   
    49   45   51 1   
    50   45   52 1   
    51   46   47 1   
    52   46   48 1   
    53   53   54 1   
    54   53   57 1   
    55   54   55 1   
    56   54   58 1   
    57   54   59 1   
    58   55   56 2   
    59   55   60 1   
    60   60   61 1   
    61   60   68 1   
    62   61   62 1   
    63   61   64 1   
    64   61   69 1   
    65   62   63 2   
    66   62   74 1   
    67   64   65 1   
    68   64   70 1   
    69   64   71 1   
    70   65   66 1   
    71   65   67 2   
    72   66   72 1   
    73   66   73 1   
    74   74   75 1   
    75   74   78 1   
    76   75   76 1   
    77   75   79 1   
    78   75   80 1   
    79   76   77 2   
    80   76   81 1   
    81   81   82 1   
    82   81   93 1   
    83   82   83 1   
    84   82   85 1   
    85   82   94 1   
    86   83   84 2   
    87   83  102 1   
    88   85   86 1   
    89   85   95 1   
    90   85   96 1   
    91   86   87 ar  
    92   86   88 ar  
    93   87   89 ar  
    94   87   97 1   
    95   88   90 ar  
    96   88   98 1   
    97   89   91 ar  
    98   89   99 1   
    99   90   91 ar  
   100   90  100 1   
   101   91   92 1   
   102   92  101 1   
   103  102  103 1   
   104  102  110 1   
   105  103  104 1   
   106  103  106 1   
   107  103  111 1   
   108  104  105 2   
   109  104  121 1   
   110  106  107 1   
   111  106  108 1   
   112  106  112 1   
   113  107  109 1   
   114  107  113 1   
   115  107  114 1   
   116  108  115 1   
   117  108  116 1   
   118  108  117 1   
   119  109  118 1   
   120  109  119 1   
   121  109  120 1   
   122  121  122 1   
   123  121  127 1   
   124  122  123 1   
   125  122  125 1   
   126  122  128 1   
   127  123  124 2   
   128  123  132 1   
   129  125  126 1   
   130  125  129 1   
   131  125  130 1   
   132  126  131 1   
   133  132  133 1   
   134  132  137 1   
   135  133  134 1   
   136  133  136 1   
   137  133  138 1   
   138  134  135 2   
   139  134  142 1   
   140  136  139 1   
   141  136  140 1   
   142  136  141 1   
   143  142  143 1   
   144  142  147 1   
   145  143  144 1   
   146  143  146 1   
   147  143  148 1   
   148  144  145 2   
   149  144  152 1   
   150  146  149 1   
   151  146  150 1   
   152  146  151 1   
   153  152  153 1   
   154  152  161 1   
   155  153  154 1   
   156  153  156 1   
   157  153  162 1   
   158  154  155 2   
   159  154  167 1   
   160  156  157 1   
   161  156  163 1   
   162  156  164 1   
   163  157  158 1   
   164  157  165 1   
   165  157  166 1   
   166  158  159 1   
   167  158  160 1   
   168  167  168 1   
   169  167  172 1   
   170  168  169 1   
   171  168  170 1   
   172  168  171 1   
   173  174  175 1   
   174  174  176 1   
   175  177  178 1   
   176  177  179 1   
@<TRIPOS>SUBSTRUCTURE
     1 MOL         1 TEMP              0 ****  ****    0 ROOT
