@<TRIPOS>MOLECULE
MOL
  186   183     1     0     0
SMALL
resp


@<TRIPOS>ATOM
      1 C1          0.8670   -2.1430    6.5180 c3        1 MOL     -0.241223
      2 C2          1.0020   -1.8570    5.0340 c         1 MOL      0.803147
      3 O1          0.0510   -2.0430    4.3220 o         1 MOL     -0.581484
      4 H1          0.7080   -1.2080    7.0550 hc        1 MOL      0.048801
      5 H2          0.0170   -2.8050    6.6850 hc        1 MOL      0.048801
      6 H3          1.7780   -2.6210    6.8810 hc        1 MOL      0.048801
      7 N1          2.1830   -1.5290    4.5110 n         1 MOL     -0.674217
      8 C3          2.4990   -1.6250    3.1320 c3        1 MOL      0.381684
      9 C4          2.7640   -3.0600    2.6560 c         1 MOL      0.465849
     10 O2          3.0500   -3.9650    3.4540 o         1 MOL     -0.601082
     11 C5          3.7800   -0.8240    2.9480 c3        1 MOL     -0.327433
     12 C6          4.4150   -0.8730    1.5290 c         1 MOL      0.824304
     13 O3          3.7030   -1.1220    0.5350 o         1 MOL     -0.667515
     14 O4          5.6320   -0.6830    1.4610 o         1 MOL     -0.667515
     15 H4          2.9070   -1.3330    5.1940 hn        1 MOL      0.315463
     16 H5          1.7010   -1.1600    2.5520 h1        1 MOL     -0.000710
     17 H6          4.5100   -1.1940    3.6720 hc        1 MOL      0.037988
     18 H7          3.6440    0.2420    3.1180 hc        1 MOL      0.037988
     19 N2          2.4550   -3.4380    1.3910 n         1 MOL     -0.127479
     20 C7          2.3870   -4.8280    0.9140 c3        1 MOL      0.028651
     21 C8          3.1620   -5.1550   -0.3450 c         1 MOL      0.231319
     22 O5          3.3880   -6.3580   -0.5790 o         1 MOL     -0.534496
     23 C9          0.8550   -5.3070    0.8730 c3        1 MOL      0.323427
     24 C10         0.0650   -5.0430    2.1700 c3        1 MOL      0.087530
     25 C11         0.7690   -6.7110    0.2050 c3        1 MOL     -0.247646
     26 C12         0.5660   -5.9890    3.2560 c3        1 MOL     -0.130458
     27 H8          2.0930   -2.7610    0.7230 hn        1 MOL      0.012116
     28 H9          2.7740   -5.4920    1.6800 h1        1 MOL      0.072617
     29 H10         0.2750   -4.7020    0.1730 hc        1 MOL     -0.059270
     30 H11        -1.0060   -5.2350    2.1340 hc        1 MOL     -0.022029
     31 H12         0.1590   -3.9940    2.4650 hc        1 MOL     -0.022029
     32 H13         0.9290   -6.6980   -0.8740 hc        1 MOL      0.040329
     33 H14         1.5370   -7.4060    0.5540 hc        1 MOL      0.040329
     34 H15        -0.2030   -7.1070    0.5140 hc        1 MOL      0.040329
     35 H16         1.6530   -5.9780    3.2200 hc        1 MOL      0.003239
     36 H17         0.1620   -5.7320    4.2350 hc        1 MOL      0.003239
     37 H18         0.3080   -7.0020    2.9480 hc        1 MOL      0.003239
     38 N3          3.5550   -4.1560   -1.1450 n         1 MOL      0.092263
     39 C13         4.3740   -4.2810   -2.3350 c3        1 MOL      0.076196
     40 C14         5.7990   -3.6580   -2.1560 c         1 MOL      0.304341
     41 O6          6.6190   -3.5890   -3.0910 o         1 MOL     -0.495805
     42 C15         3.5930   -3.7920   -3.5490 c3        1 MOL     -0.246740
     43 C16         3.1420   -2.3030   -3.5660 c         1 MOL      0.820781
     44 O7          2.4570   -1.8720   -4.4690 o         1 MOL     -0.694613
     45 O8          3.5450   -1.4770   -2.6730 o         1 MOL     -0.694613
     46 H19         3.3930   -3.2220   -0.7940 hn        1 MOL     -0.005064
     47 H20         4.5380   -5.3610   -2.3920 h1        1 MOL      0.045869
     48 H21         2.6850   -4.3880   -3.5240 hc        1 MOL      0.053825
     49 H22         4.1910   -3.8570   -4.4690 hc        1 MOL      0.053825
     50 N4          6.1040   -3.1110   -1.0030 n         1 MOL     -0.129100
     51 C17         7.3220   -2.3420   -0.6710 c3        1 MOL     -0.174030
     52 C18         7.6660   -1.0930   -1.4930 c         1 MOL      0.764952
     53 O9          8.5860   -1.0430   -2.3040 o         1 MOL     -0.601411
     54 H23         5.3330   -3.1040   -0.3540 hn        1 MOL      0.129776
     55 H24         8.2110   -2.9400   -0.8730 h1        1 MOL      0.057942
     56 H25         7.3040   -2.0620    0.3780 h1        1 MOL      0.057942
     57 N5          6.9720   -0.0000   -1.1280 n         1 MOL     -0.544160
     58 C19         7.2290    1.4160   -1.6760 c3        1 MOL     -0.028403
     59 C20         7.1880    2.5430   -0.6090 c         1 MOL      0.447886
     60 O10         7.2540    3.7290   -0.9880 o         1 MOL     -0.556308
     61 C21         6.1820    1.7170   -2.7500 c3        1 MOL     -0.170575
     62 C22         4.7850    1.8060   -2.2320 c         1 MOL      0.745653
     63 O11         4.5300    1.8320   -0.9810 o         1 MOL     -0.713837
     64 O12         3.9060    1.7410   -3.0880 o         1 MOL     -0.713837
     65 H26         6.2070   -0.1290   -0.4890 hn        1 MOL      0.172918
     66 H27         8.2080    1.3810   -2.1530 h1        1 MOL      0.107405
     67 H28         6.2720    0.9020   -3.4620 hc        1 MOL      0.074348
     68 H29         6.3850    2.5780   -3.3840 hc        1 MOL      0.074348
     69 N6          7.0890    2.2330    0.6460 n         1 MOL     -0.271392
     70 C23         7.0780    3.2290    1.7190 c3        1 MOL     -0.174513
     71 C24         5.7520    4.0660    1.8800 c         1 MOL      0.547529
     72 O13         5.7870    5.0150    2.6650 o         1 MOL     -0.595966
     73 H30         6.8070    1.2860    0.8350 hn        1 MOL      0.258730
     74 H31         7.9770    3.8330    1.6420 h1        1 MOL      0.104999
     75 H32         7.0590    2.6830    2.6650 h1        1 MOL      0.104999
     76 N7          4.5980    3.7210    1.2480 n         1 MOL     -0.304437
     77 C25         3.1960    4.2090    1.5460 c3        1 MOL      0.013778
     78 C26         2.1720    3.0730    1.4700 c         1 MOL      0.445105
     79 O14         2.4150    1.9790    0.8730 o         1 MOL     -0.613869
     80 C27         2.8370    5.3050    0.5170 c3        1 MOL     -0.071483
     81 C28         3.8950    6.4750    0.4760 c3        1 MOL     -0.205525
     82 C29         3.2930    7.5310   -0.4860 c         1 MOL      0.626626
     83 N8          3.6280    7.4190   -1.8010 n         1 MOL     -0.813043
     84 O15         2.6610    8.4860   -0.0970 o         1 MOL     -0.565006
     85 H33         4.6390    2.8780    0.6850 hn        1 MOL      0.274271
     86 H34         3.1540    4.6240    2.5560 h1        1 MOL      0.072234
     87 H35         1.8530    5.6900    0.7850 hc        1 MOL      0.046937
     88 H36         2.8270    4.9670   -0.5140 hc        1 MOL      0.046937
     89 H37         4.8410    6.1670    0.0180 hc        1 MOL      0.095220
     90 H38         3.9620    6.9290    1.4690 hc        1 MOL      0.095220
     91 H39         4.1640    6.6160   -2.1070 hn        1 MOL      0.365547
     92 H40         3.1070    7.9880   -2.4390 hn        1 MOL      0.365547
     93 N9          0.9760    3.2480    1.9050 n         1 MOL     -0.315212
     94 C30        -0.1570    2.2340    1.9610 c3        1 MOL      0.181845
     95 C31        -1.2780    2.7610    1.1040 c         1 MOL      0.251419
     96 O16        -1.9270    3.7850    1.4370 o         1 MOL     -0.564746
     97 C32        -0.6650    1.9870    3.3790 c3        1 MOL      0.265111
     98 C33        -1.7000    0.8800    3.5570 c3        1 MOL     -0.278680
     99 C34         0.3810    1.5930    4.4560 c3        1 MOL     -0.278680
    100 H41         0.8930    4.1410    2.3790 hn        1 MOL      0.219841
    101 H42         0.2480    1.3520    1.4660 h1        1 MOL      0.071694
    102 H43        -1.1230    2.9220    3.7150 hc        1 MOL     -0.038887
    103 H44        -1.3320   -0.1430    3.5070 hc        1 MOL      0.046768
    104 H45        -2.1670    1.0020    4.5370 hc        1 MOL      0.046768
    105 H46        -2.4260    1.0050    2.7560 hc        1 MOL      0.046768
    106 H47        -0.1340    1.4930    5.4130 hc        1 MOL      0.046768
    107 H48         0.9670    0.7050    4.2250 hc        1 MOL      0.046768
    108 H49         0.9930    2.4870    4.5820 hc        1 MOL      0.046768
    109 N10        -1.6870    2.0400    0.0930 n         1 MOL     -0.006036
    110 C35        -2.7490    2.4760   -0.7620 c3        1 MOL     -0.059027
    111 C36        -4.0870    1.9730   -0.1830 c         1 MOL      0.387525
    112 O17        -4.1230    1.1850    0.7400 o         1 MOL     -0.307589
    113 C37        -2.5090    1.7650   -2.1680 c3        1 MOL     -0.063576
    114 C38        -3.4740    2.0840   -3.3020 c         1 MOL      0.571551
    115 N11        -3.8240    3.3430   -3.5600 n         1 MOL     -0.724703
    116 O18        -3.9700    1.1270   -3.9200 o         1 MOL     -0.479690
    117 H50        -1.1780    1.1870   -0.1140 hn        1 MOL      0.110409
    118 H51        -2.8390    3.5600   -0.8220 h1        1 MOL      0.063515
    119 H52        -2.6100    0.7000   -1.9690 hc        1 MOL      0.053594
    120 H53        -1.4960    1.9470   -2.5150 hc        1 MOL      0.053594
    121 H54        -3.4660    4.1690   -3.0970 hn        1 MOL      0.330860
    122 H55        -4.6450    3.5220   -4.1310 hn        1 MOL      0.330860
    123 N12        -5.2400    2.3690   -0.7650 n         1 MOL     -0.377381
    124 C39        -6.5800    1.8920   -0.3370 c3        1 MOL      0.041645
    125 C40        -6.7420    0.3590   -0.2860 c         1 MOL      0.533983
    126 O19        -7.4090   -0.1590    0.6500 o         1 MOL     -0.489675
    127 C41        -7.7340    2.5310   -1.1540 c3        1 MOL     -0.040670
    128 C42        -9.0230    2.3300   -0.5620 ca        1 MOL     -0.117129
    129 C43        -9.3240    2.8590    0.7310 ca        1 MOL     -0.084412
    130 C44        -9.9550    1.4390   -1.1280 ca        1 MOL     -0.084412
    131 C45       -10.5520    2.5570    1.4110 ca        1 MOL     -0.353158
    132 C46       -11.1750    1.1130   -0.4640 ca        1 MOL     -0.353158
    133 C47       -11.4570    1.6100    0.8230 ca        1 MOL      0.477656
    134 O20       -12.6520    1.3010    1.3850 oh        1 MOL     -0.565399
    135 H56        -5.1060    3.1050   -1.4410 hn        1 MOL      0.199472
    136 H57        -6.6960    2.3300    0.6470 h1        1 MOL      0.074108
    137 H58        -7.7670    2.2880   -2.2140 hc        1 MOL      0.054405
    138 H59        -7.5150    3.6030   -1.1140 hc        1 MOL      0.054405
    139 H60        -8.6130    3.4540    1.2780 ha        1 MOL      0.140300
    140 H61        -9.8000    1.0590   -2.1320 ha        1 MOL      0.140300
    141 H62       -10.7630    3.0170    2.3630 ha        1 MOL      0.157697
    142 H63       -11.9510    0.4670   -0.8330 ha        1 MOL      0.157697
    143 H64       -13.2960    0.8060    0.8660 ho        1 MOL      0.385816
    144 N13        -6.1700   -0.4200   -1.2280 n         1 MOL     -0.329797
    145 C48        -6.2060   -1.9380   -1.2110 c3        1 MOL     -0.082340
    146 C49        -5.4590   -2.4940   -0.0180 c         1 MOL      0.254708
    147 O21        -5.8370   -3.4360    0.6740 o         1 MOL     -0.496778
    148 C50        -5.6730   -2.5540   -2.4980 c3        1 MOL      0.348510
    149 C51        -6.5120   -2.2260   -3.7360 c3        1 MOL     -0.281003
    150 C52        -5.8870   -2.5540   -5.1170 c         1 MOL      0.751412
    151 O22        -4.8280   -3.1540   -5.1270 o         1 MOL     -0.747269
    152 O23        -6.5050   -2.1980   -6.1680 o         1 MOL     -0.747269
    153 H65        -5.6740   -0.0110   -2.0070 hn        1 MOL      0.206077
    154 H66        -7.2160   -2.3630   -1.1490 h1        1 MOL      0.092939
    155 H67        -5.6640   -3.6350   -2.3740 hc        1 MOL     -0.032687
    156 H68        -4.6490   -2.3140   -2.7770 hc        1 MOL     -0.032687
    157 H69        -6.7380   -1.1610   -3.8220 hc        1 MOL     -0.002833
    158 H70        -7.5320   -2.5900   -3.6770 hc        1 MOL     -0.002833
    159 N14        -4.3410   -1.8640    0.3430 n         1 MOL     -0.121790
    160 C53        -3.5200   -2.2560    1.4020 c3        1 MOL     -0.075026
    161 C54        -4.2360   -1.9090    2.7820 c         1 MOL      0.503415
    162 O24        -4.0690   -2.5370    3.7610 o         1 MOL     -0.557999
    163 C55        -2.0460   -1.7570    1.1880 c3        1 MOL     -0.086243
    164 C56        -1.4660   -1.9820   -0.2320 c3        1 MOL     -0.389915
    165 C57        -0.0550   -1.3160   -0.4770 c         1 MOL      0.916837
    166 O25         0.9900   -1.9950   -0.6420 o         1 MOL     -0.792389
    167 O26         0.0820   -0.1060   -0.4570 o         1 MOL     -0.792389
    168 H71        -4.0980   -1.0230   -0.1570 hn        1 MOL      0.139875
    169 H72        -3.4130   -3.3400    1.3760 h1        1 MOL      0.100412
    170 H73        -1.4270   -2.2770    1.9340 hc        1 MOL      0.118872
    171 H74        -2.0430   -0.6810    1.3440 hc        1 MOL      0.118872
    172 H75        -2.1440   -1.4530   -0.8990 hc        1 MOL      0.094492
    173 H76        -1.5290   -3.0130   -0.5880 hc        1 MOL      0.094492
    174 N15        -5.0090   -0.8190    2.7550 n         1 MOL     -0.065427
    175 C58        -5.8280   -0.4490    3.9790 c3        1 MOL     -0.246462
    176 H77        -5.2360    0.1930    4.6310 h1        1 MOL      0.089646
    177 H78        -6.7290    0.0810    3.6680 h1        1 MOL      0.089646
    178 H79        -6.1070   -1.3550    4.5170 h1        1 MOL      0.089646
    179 H80        -4.9800   -0.1560    1.9980 hn        1 MOL      0.055005
    180 Ca1         2.4950    0.2640   -1.1990 Ca        1 MOL      1.748717
    181 O27         0.9270   -0.0490   -3.3030 oh        1 MOL     -0.794099
    182 H81         1.4030   -0.7430   -3.7510 ho        1 MOL      0.373813
    183 H82         0.0470   -0.3990   -3.1970 ho        1 MOL      0.373813
    184 O28         1.7180    2.9370   -2.1790 oh        1 MOL     -0.794099
    185 H83         1.5370    3.8790   -2.2220 ho        1 MOL      0.373813
    186 H84         2.3700    2.7940   -2.8710 ho        1 MOL      0.373813
@<TRIPOS>BOND
     1    1    2 1   
     2    1    4 1   
     3    1    5 1   
     4    1    6 1   
     5    2    3 2   
     6    2    7 1   
     7    7    8 1   
     8    7   15 1   
     9    8    9 1   
    10    8   11 1   
    11    8   16 1   
    12    9   10 2   
    13    9   19 1   
    14   11   12 1   
    15   11   17 1   
    16   11   18 1   
    17   12   13 1   
    18   12   14 1   
    19   19   20 1   
    20   19   27 1   
    21   20   21 1   
    22   20   23 1   
    23   20   28 1   
    24   21   22 2   
    25   21   38 1   
    26   23   24 1   
    27   23   25 1   
    28   23   29 1   
    29   24   26 1   
    30   24   30 1   
    31   24   31 1   
    32   25   32 1   
    33   25   33 1   
    34   25   34 1   
    35   26   35 1   
    36   26   36 1   
    37   26   37 1   
    38   38   39 1   
    39   38   46 1   
    40   39   40 1   
    41   39   42 1   
    42   39   47 1   
    43   40   41 2   
    44   40   50 1   
    45   42   43 1   
    46   42   48 1   
    47   42   49 1   
    48   43   44 1   
    49   43   45 1   
    50   50   51 1   
    51   50   54 1   
    52   51   52 1   
    53   51   55 1   
    54   51   56 1   
    55   52   53 2   
    56   52   57 1   
    57   57   58 1   
    58   57   65 1   
    59   58   59 1   
    60   58   61 1   
    61   58   66 1   
    62   59   60 2   
    63   59   69 1   
    64   61   62 1   
    65   61   67 1   
    66   61   68 1   
    67   62   63 1   
    68   62   64 1   
    69   69   70 1   
    70   69   73 1   
    71   70   71 1   
    72   70   74 1   
    73   70   75 1   
    74   71   72 2   
    75   71   76 1   
    76   76   77 1   
    77   76   85 1   
    78   77   78 1   
    79   77   80 1   
    80   77   86 1   
    81   78   79 2   
    82   78   93 1   
    83   80   81 1   
    84   80   87 1   
    85   80   88 1   
    86   81   82 1   
    87   81   89 1   
    88   81   90 1   
    89   82   83 1   
    90   82   84 2   
    91   83   91 1   
    92   83   92 1   
    93   93   94 1   
    94   93  100 1   
    95   94   95 1   
    96   94   97 1   
    97   94  101 1   
    98   95   96 2   
    99   95  109 1   
   100   97   98 1   
   101   97   99 1   
   102   97  102 1   
   103   98  103 1   
   104   98  104 1   
   105   98  105 1   
   106   99  106 1   
   107   99  107 1   
   108   99  108 1   
   109  109  110 1   
   110  109  117 1   
   111  110  111 1   
   112  110  113 1   
   113  110  118 1   
   114  111  112 2   
   115  111  123 1   
   116  113  114 1   
   117  113  119 1   
   118  113  120 1   
   119  114  115 1   
   120  114  116 2   
   121  115  121 1   
   122  115  122 1   
   123  123  124 1   
   124  123  135 1   
   125  124  125 1   
   126  124  127 1   
   127  124  136 1   
   128  125  126 2   
   129  125  144 1   
   130  127  128 1   
   131  127  137 1   
   132  127  138 1   
   133  128  129 ar  
   134  128  130 ar  
   135  129  131 ar  
   136  129  139 1   
   137  130  132 ar  
   138  130  140 1   
   139  131  133 ar  
   140  131  141 1   
   141  132  133 ar  
   142  132  142 1   
   143  133  134 1   
   144  134  143 1   
   145  144  145 1   
   146  144  153 1   
   147  145  146 1   
   148  145  148 1   
   149  145  154 1   
   150  146  147 2   
   151  146  159 1   
   152  148  149 1   
   153  148  155 1   
   154  148  156 1   
   155  149  150 1   
   156  149  157 1   
   157  149  158 1   
   158  150  151 1   
   159  150  152 1   
   160  159  160 1   
   161  159  168 1   
   162  160  161 1   
   163  160  163 1   
   164  160  169 1   
   165  161  162 2   
   166  161  174 1   
   167  163  164 1   
   168  163  170 1   
   169  163  171 1   
   170  164  165 1   
   171  164  172 1   
   172  164  173 1   
   173  165  166 1   
   174  165  167 1   
   175  174  175 1   
   176  174  179 1   
   177  175  176 1   
   178  175  177 1   
   179  175  178 1   
   180  181  182 1   
   181  181  183 1   
   182  184  185 1   
   183  184  186 1   
@<TRIPOS>SUBSTRUCTURE
     1 MOL         1 TEMP              0 ****  ****    0 ROOT
