@<TRIPOS>MOLECULE
MOL
  189   185     1     0     0
SMALL
resp


@<TRIPOS>ATOM
      1 C1          0.1120    1.8900    5.6250 c3        1 MOL     -0.159263
      2 C2         -0.3900    1.9530    4.1850 c         1 MOL      0.577334
      3 O1          0.3870    2.1390    3.2360 o         1 MOL     -0.609908
      4 H1          0.9700    2.5520    5.7390 hc        1 MOL      0.037029
      5 H2         -0.6820    2.2050    6.3010 hc        1 MOL      0.037029
      6 H3          0.4090    0.8680    5.8630 hc        1 MOL      0.037029
      7 N1         -1.6910    1.7860    4.0550 n         1 MOL     -0.495283
      8 C3         -2.4140    1.7300    2.8060 c3        1 MOL      0.339558
      9 C4         -2.7750    3.1120    2.1970 c         1 MOL      0.195424
     10 O2         -3.7200    3.7980    2.6600 o         1 MOL     -0.528063
     11 C5         -3.6570    0.8870    2.9380 c3        1 MOL     -0.391128
     12 C6         -4.2880    0.5700    1.5120 c         1 MOL      0.924557
     13 O3         -3.5780    0.4910    0.5050 o         1 MOL     -0.743525
     14 O4         -5.5310    0.3210    1.4670 o         1 MOL     -0.743525
     15 H4         -2.2820    1.6670    4.8700 hn        1 MOL      0.300626
     16 H5         -1.7620    1.0800    2.2370 h1        1 MOL      0.030592
     17 H6         -4.3860    1.4350    3.5280 hc        1 MOL      0.076777
     18 H7         -3.3840   -0.0570    3.3910 hc        1 MOL      0.076777
     19 N2         -2.0460    3.4840    1.2220 n         1 MOL      0.058424
     20 C7         -1.9730    4.8810    0.6500 c3        1 MOL      0.035799
     21 C8         -2.9020    5.2240   -0.5610 c         1 MOL      0.368761
     22 O5         -3.2940    6.3520   -0.8700 o         1 MOL     -0.536933
     23 C9         -0.4810    5.1130    0.2890 c3        1 MOL     -0.283342
     24 C10         0.3770    5.3030    1.5490 c3        1 MOL      0.077760
     25 C11         0.1340    6.6550    2.2830 c3        1 MOL     -0.122915
     26 C12         1.1060    6.7750    3.5150 c3        1 MOL     -0.176581
     27 N3          1.0310    5.5410    4.3840 n4        1 MOL     -0.189388
     28 H8         -1.3590    2.8680    0.7920 hn        1 MOL      0.131474
     29 H9         -2.2390    5.6440    1.3750 h1        1 MOL      0.036592
     30 H10        -0.4430    6.0700   -0.2300 hc        1 MOL      0.105867
     31 H11        -0.1120    4.3780   -0.4320 hc        1 MOL      0.105867
     32 H12         1.4460    5.1810    1.3930 hc        1 MOL      0.009622
     33 H13         0.0290    4.5210    2.2270 hc        1 MOL      0.009622
     34 H14        -0.8820    6.7790    2.6530 hc        1 MOL      0.090222
     35 H15         0.3280    7.4570    1.5690 hc        1 MOL      0.090222
     36 H16         1.0070    7.7020    4.0770 hx        1 MOL      0.132444
     37 H17         2.0820    6.7660    3.0250 hx        1 MOL      0.132444
     38 H18         1.3260    4.7680    3.8060 hn        1 MOL      0.287209
     39 H19         1.6600    5.6820    5.1590 hn        1 MOL      0.287209
     40 H20         0.1270    5.3340    4.7760 hn        1 MOL      0.287209
     41 N4         -3.2750    4.1300   -1.2350 n         1 MOL     -0.177675
     42 C13        -4.1410    4.1390   -2.4360 c3        1 MOL      0.024737
     43 C14        -5.3290    3.2510   -2.3630 c         1 MOL      0.476156
     44 O6         -6.0260    3.0180   -3.3800 o         1 MOL     -0.505754
     45 C15        -3.2410    3.8340   -3.6850 c3        1 MOL     -0.179033
     46 C16        -2.1830    2.6670   -3.4510 c         1 MOL      0.766572
     47 O7         -1.1810    2.4780   -4.2060 o         1 MOL     -0.714955
     48 O8         -2.3700    1.9000   -2.4780 o         1 MOL     -0.714955
     49 H21        -2.8590    3.2740   -0.9010 hn        1 MOL      0.138654
     50 H22        -4.5420    5.1420   -2.5840 h1        1 MOL      0.103461
     51 H23        -2.7000    4.7530   -3.9380 hc        1 MOL      0.042974
     52 H24        -3.9130    3.6770   -4.5330 hc        1 MOL      0.042974
     53 N5         -5.6730    2.8390   -1.1310 n         1 MOL     -0.368394
     54 C17        -7.0250    2.3680   -0.7280 c3        1 MOL     -0.064398
     55 C18        -7.5110    1.1230   -1.4300 c         1 MOL      0.448385
     56 O9         -8.7400    1.0140   -1.6780 o         1 MOL     -0.553148
     57 H25        -5.0420    3.0310   -0.3580 hn        1 MOL      0.232199
     58 H26        -7.7670    3.1650   -0.8840 h1        1 MOL      0.084368
     59 H27        -7.0150    2.0950    0.3290 h1        1 MOL      0.084368
     60 N6         -6.5600    0.1840   -1.7070 n         1 MOL     -0.127698
     61 C19        -6.8520   -1.1470   -2.2240 c3        1 MOL     -0.136353
     62 C20        -7.1120   -2.2180   -1.1710 c         1 MOL      0.390405
     63 O10        -7.4560   -3.3960   -1.5040 o         1 MOL     -0.519393
     64 C21        -5.8080   -1.5700   -3.2580 c3        1 MOL     -0.077012
     65 C22        -4.4200   -1.2880   -2.7330 c         1 MOL      0.511728
     66 O11        -4.0470   -1.8000   -1.5900 o         1 MOL     -0.601522
     67 O12        -3.6880   -0.4930   -3.3860 o         1 MOL     -0.601522
     68 H28        -5.6150    0.3720   -1.4200 hn        1 MOL      0.161617
     69 H29        -7.7930   -1.1150   -2.7810 h1        1 MOL      0.134014
     70 H30        -5.9160   -1.1150   -4.2470 hc        1 MOL      0.051913
     71 H31        -5.9310   -2.6470   -3.4030 hc        1 MOL      0.051913
     72 N7         -6.8480   -1.8880    0.1260 n         1 MOL     -0.235490
     73 C23        -6.9670   -2.8380    1.2850 c3        1 MOL     -0.117847
     74 C24        -5.8310   -3.7940    1.4700 c         1 MOL      0.574573
     75 O13        -6.0120   -4.7600    2.2290 o         1 MOL     -0.581289
     76 H32        -6.5450   -0.9410    0.3230 hn        1 MOL      0.264857
     77 H33        -7.9370   -3.3210    1.2520 h1        1 MOL      0.083452
     78 H34        -6.9040   -2.2920    2.2220 h1        1 MOL      0.083452
     79 N8         -4.6470   -3.5140    0.8750 n         1 MOL     -0.164953
     80 C25        -3.4760   -4.4260    0.9030 c3        1 MOL     -0.401127
     81 C26        -2.1780   -3.5660    1.0010 c         1 MOL      0.697504
     82 O14        -2.1220   -2.3910    0.6770 o         1 MOL     -0.643910
     83 C27        -3.3460   -5.1520   -0.4390 c3        1 MOL      0.670677
     84 C28        -4.1340   -6.4730   -0.4060 c3        1 MOL     -0.403856
     85 O15        -3.7670   -4.5570   -1.5860 oh        1 MOL     -0.680681
     86 H35        -4.5800   -2.6590    0.3360 hn        1 MOL      0.090624
     87 H36        -3.5160   -5.1470    1.7090 h1        1 MOL      0.148692
     88 H37        -2.2940   -5.3860   -0.6060 h1        1 MOL     -0.090629
     89 H38        -3.8880   -3.6080   -1.4810 ho        1 MOL      0.453167
     90 H39        -5.1780   -6.3340   -0.6880 hc        1 MOL      0.087023
     91 H40        -3.6150   -7.1490   -1.0910 hc        1 MOL      0.087023
     92 H41        -4.0080   -6.9680    0.5560 hc        1 MOL      0.087023
     93 N9         -0.9950   -4.1760    1.4110 n         1 MOL     -0.527891
     94 C29         0.2570   -3.4350    1.5950 c3        1 MOL      0.187347
     95 C30         1.3750   -3.9960    0.7390 c         1 MOL      0.370170
     96 O16         1.4830   -5.1630    0.6100 o         1 MOL     -0.504352
     97 C31         0.7450   -3.4280    3.0360 c3        1 MOL      0.128107
     98 C32        -0.3350   -3.3740    4.1760 c3        1 MOL      0.264362
     99 C33         1.5390   -2.0500    3.1470 c3        1 MOL     -0.910232
    100 C34         0.2520   -3.6720    5.5760 c3        1 MOL     -0.248391
    101 H42        -1.0140   -5.1690    1.5830 hn        1 MOL      0.263728
    102 H43         0.1340   -2.4180    1.2240 h1        1 MOL      0.010352
    103 H44         1.3680   -4.2790    3.2930 hc        1 MOL      0.005724
    104 H45        -1.1000   -4.1250    3.9640 hc        1 MOL     -0.048748
    105 H46        -0.8670   -2.4200    4.1020 hc        1 MOL     -0.048748
    106 H47         0.8110   -1.2860    2.8940 hc        1 MOL      0.242109
    107 H48         1.8220   -1.8800    4.1840 hc        1 MOL      0.242109
    108 H49         2.4010   -2.0230    2.4930 hc        1 MOL      0.242109
    109 H50        -0.4820   -3.6030    6.3810 hc        1 MOL      0.049486
    110 H51         0.7100   -4.6610    5.5020 hc        1 MOL      0.049486
    111 H52         1.0300   -2.9400    5.7680 hc        1 MOL      0.049486
    112 N10         2.2240   -3.0550    0.1840 n         1 MOL     -0.106979
    113 C35         3.3220   -3.5480   -0.7360 c3        1 MOL      0.015215
    114 C36         4.7700   -3.1170   -0.1340 c         1 MOL      0.304269
    115 O17         4.8680   -2.4210    0.8600 o         1 MOL     -0.386046
    116 C37         3.2050   -2.8090   -2.1530 c3        1 MOL      0.304795
    117 C38         2.0090   -3.1730   -2.9690 c3        1 MOL     -0.322177
    118 O18         3.2320   -1.3410   -1.9890 oh        1 MOL     -0.535455
    119 H53         1.9750   -2.0740    0.2100 hn        1 MOL      0.165743
    120 H54         3.3380   -4.6400   -0.8110 h1        1 MOL      0.073756
    121 H55         4.0840   -3.0240   -2.7610 h1        1 MOL     -0.014148
    122 H56         3.0110   -0.9450   -2.8360 ho        1 MOL      0.356131
    123 H57         1.2620   -3.3590   -2.1990 hc        1 MOL      0.085432
    124 H58         1.6540   -2.3160   -3.5540 hc        1 MOL      0.085432
    125 H59         2.3240   -4.0570   -3.5170 hc        1 MOL      0.085432
    126 N11         5.8820   -3.4650   -0.7600 n         1 MOL     -0.204522
    127 C39         7.2800   -3.0290   -0.3320 c3        1 MOL     -0.243049
    128 C40         7.4210   -1.5290   -0.3250 c         1 MOL      0.437625
    129 O19         8.1540   -0.9920    0.5420 o         1 MOL     -0.515861
    130 C41         8.3930   -3.6710   -1.1130 c3        1 MOL      0.395290
    131 C42         8.2440   -5.1880   -0.9870 c3        1 MOL     -0.480844
    132 O20         8.1330   -3.2930   -2.4360 oh        1 MOL     -0.611377
    133 H60         5.7430   -4.0340   -1.5850 hn        1 MOL      0.216772
    134 H61         7.4160   -3.3060    0.7140 h1        1 MOL      0.167424
    135 H62         9.3880   -3.3070   -0.8440 h1        1 MOL      0.038871
    136 H63         8.9480   -3.4350   -2.9250 ho        1 MOL      0.394470
    137 H64         9.2180   -5.6250   -1.1870 hc        1 MOL      0.133075
    138 H65         7.8930   -5.4910   -0.0000 hc        1 MOL      0.133075
    139 H66         7.6040   -5.5690   -1.7800 hc        1 MOL      0.133075
    140 N12         6.7920   -0.7820   -1.2580 n         1 MOL     -0.327041
    141 C43         6.8640    0.6910   -1.3890 c3        1 MOL      0.029400
    142 C44         6.1430    1.4300   -0.2210 c         1 MOL      0.364653
    143 O21         6.5620    2.3600    0.4720 o         1 MOL     -0.513512
    144 C45         6.5510    1.2020   -2.7830 c3        1 MOL     -0.098112
    145 C46         6.9060    2.7180   -2.9800 c3        1 MOL     -0.065715
    146 C47         8.4990    2.7780   -2.9190 c3        1 MOL     -0.017854
    147 C48         8.8990    4.1700   -3.4830 c3        1 MOL      0.016795
    148 N13        10.3630    4.2210   -3.6890 n4        1 MOL     -0.267293
    149 H67         6.2780   -1.3630   -1.8900 hn        1 MOL      0.229103
    150 H68         7.8800    0.9720   -1.1340 h1        1 MOL      0.084988
    151 H69         5.4750    1.0950   -2.9240 hc        1 MOL      0.044293
    152 H70         7.0530    0.5300   -3.4820 hc        1 MOL      0.044293
    153 H71         6.5020    3.3950   -2.2250 hc        1 MOL      0.060006
    154 H72         6.5640    3.1550   -3.9250 hc        1 MOL      0.060006
    155 H73         8.9440    2.0080   -3.5430 hc        1 MOL      0.041638
    156 H74         8.8050    2.6650   -1.8820 hc        1 MOL      0.041638
    157 H75         8.7060    4.9680   -2.7640 hx        1 MOL      0.087858
    158 H76         8.4090    4.3170   -4.4380 hx        1 MOL      0.087858
    159 H77        10.8630    4.0110   -2.8350 hn        1 MOL      0.294009
    160 H78        10.7070    3.6180   -4.4150 hn        1 MOL      0.294009
    161 H79        10.5640    5.1650   -3.9600 hn        1 MOL      0.294009
    162 N14         5.0660    0.7910    0.2090 n         1 MOL     -0.023269
    163 C49         4.2030    1.3220    1.3400 c3        1 MOL     -0.341219
    164 C50         4.7890    0.9960    2.6760 c         1 MOL      0.523447
    165 O22         4.7400    1.7490    3.6790 o         1 MOL     -0.579147
    166 C51         2.7420    0.8480    1.3180 c3        1 MOL      0.135698
    167 C52         2.0420    1.4880    0.1560 c3        1 MOL      0.082038
    168 C53         0.6460    0.9140   -0.0780 c         1 MOL      0.516213
    169 O23         0.4840   -0.3370   -0.1550 o         1 MOL     -0.650087
    170 O24        -0.3830    1.6600   -0.2090 o         1 MOL     -0.650087
    171 H80         4.6650    0.1100   -0.4090 hn        1 MOL      0.133771
    172 H81         4.2350    2.4110    1.2210 h1        1 MOL      0.123301
    173 H82         2.3840    1.1420    2.3020 hc        1 MOL      0.014067
    174 H83         2.8680   -0.2300    1.2350 hc        1 MOL      0.014067
    175 H84         2.6550    1.2880   -0.7170 hc        1 MOL     -0.019853
    176 H85         2.0480    2.5790    0.1260 hc        1 MOL     -0.019853
    177 N15         5.4090   -0.1720    2.8270 n         1 MOL     -0.073984
    178 C54         5.9640   -0.5550    4.1080 c3        1 MOL     -0.463112
    179 H86         6.7640    0.1350    4.3770 h1        1 MOL      0.151836
    180 H87         5.1830   -0.5200    4.8680 h1        1 MOL      0.151836
    181 H88         6.3640   -1.5670    4.0430 h1        1 MOL      0.151836
    182 H89         5.4870   -0.7990    2.0390 hn        1 MOL      0.176554
    183 Ca1        -1.9480   -0.3780   -1.1680 Ca        1 MOL      1.731072
    184 O25        -1.3150   -2.5250   -2.6720 oh        1 MOL     -0.853530
    185 H90        -0.5790   -2.3140   -3.2460 ho        1 MOL      0.400684
    186 H91        -1.7600   -3.2450   -3.1130 ho        1 MOL      0.400684
    187 O26        -0.1240    0.1650   -3.1870 oh        1 MOL     -0.853530
    188 H92         0.6410    0.1290   -3.7640 ho        1 MOL      0.400684
    189 H93        -0.5620    0.9800   -3.4200 ho        1 MOL      0.400684
@<TRIPOS>BOND
     1    1    2 1   
     2    1    4 1   
     3    1    5 1   
     4    1    6 1   
     5    2    3 2   
     6    2    7 1   
     7    7    8 1   
     8    7   15 1   
     9    8    9 1   
    10    8   11 1   
    11    8   16 1   
    12    9   10 2   
    13    9   19 1   
    14   11   12 1   
    15   11   17 1   
    16   11   18 1   
    17   12   13 1   
    18   12   14 1   
    19   19   20 1   
    20   19   28 1   
    21   20   21 1   
    22   20   23 1   
    23   20   29 1   
    24   21   22 2   
    25   21   41 1   
    26   23   24 1   
    27   23   30 1   
    28   23   31 1   
    29   24   25 1   
    30   24   32 1   
    31   24   33 1   
    32   25   26 1   
    33   25   34 1   
    34   25   35 1   
    35   26   27 1   
    36   26   36 1   
    37   26   37 1   
    38   27   38 1   
    39   27   39 1   
    40   27   40 1   
    41   41   42 1   
    42   41   49 1   
    43   42   43 1   
    44   42   45 1   
    45   42   50 1   
    46   43   44 2   
    47   43   53 1   
    48   45   46 1   
    49   45   51 1   
    50   45   52 1   
    51   46   47 1   
    52   46   48 1   
    53   53   54 1   
    54   53   57 1   
    55   54   55 1   
    56   54   58 1   
    57   54   59 1   
    58   55   56 2   
    59   55   60 1   
    60   60   61 1   
    61   60   68 1   
    62   61   62 1   
    63   61   64 1   
    64   61   69 1   
    65   62   63 2   
    66   62   72 1   
    67   64   65 1   
    68   64   70 1   
    69   64   71 1   
    70   65   66 1   
    71   65   67 1   
    72   72   73 1   
    73   72   76 1   
    74   73   74 1   
    75   73   77 1   
    76   73   78 1   
    77   74   75 2   
    78   74   79 1   
    79   79   80 1   
    80   79   86 1   
    81   80   81 1   
    82   80   83 1   
    83   80   87 1   
    84   81   82 2   
    85   81   93 1   
    86   83   84 1   
    87   83   85 1   
    88   83   88 1   
    89   84   90 1   
    90   84   91 1   
    91   84   92 1   
    92   85   89 1   
    93   93   94 1   
    94   93  101 1   
    95   94   95 1   
    96   94   97 1   
    97   94  102 1   
    98   95   96 2   
    99   95  112 1   
   100   97   98 1   
   101   97   99 1   
   102   97  103 1   
   103   98  100 1   
   104   98  104 1   
   105   98  105 1   
   106   99  106 1   
   107   99  107 1   
   108   99  108 1   
   109  100  109 1   
   110  100  110 1   
   111  100  111 1   
   112  112  113 1   
   113  112  119 1   
   114  113  114 1   
   115  113  116 1   
   116  113  120 1   
   117  114  115 2   
   118  114  126 1   
   119  116  117 1   
   120  116  118 1   
   121  116  121 1   
   122  117  123 1   
   123  117  124 1   
   124  117  125 1   
   125  118  122 1   
   126  126  127 1   
   127  126  133 1   
   128  127  128 1   
   129  127  130 1   
   130  127  134 1   
   131  128  129 2   
   132  128  140 1   
   133  130  131 1   
   134  130  132 1   
   135  130  135 1   
   136  131  137 1   
   137  131  138 1   
   138  131  139 1   
   139  132  136 1   
   140  140  141 1   
   141  140  149 1   
   142  141  142 1   
   143  141  144 1   
   144  141  150 1   
   145  142  143 2   
   146  142  162 1   
   147  144  145 1   
   148  144  151 1   
   149  144  152 1   
   150  145  146 1   
   151  145  153 1   
   152  145  154 1   
   153  146  147 1   
   154  146  155 1   
   155  146  156 1   
   156  147  148 1   
   157  147  157 1   
   158  147  158 1   
   159  148  159 1   
   160  148  160 1   
   161  148  161 1   
   162  162  163 1   
   163  162  171 1   
   164  163  164 1   
   165  163  166 1   
   166  163  172 1   
   167  164  165 2   
   168  164  177 1   
   169  166  167 1   
   170  166  173 1   
   171  166  174 1   
   172  167  168 1   
   173  167  175 1   
   174  167  176 1   
   175  168  169 1   
   176  168  170 1   
   177  177  178 1   
   178  177  182 1   
   179  178  179 1   
   180  178  180 1   
   181  178  181 1   
   182  184  185 1   
   183  184  186 1   
   184  187  188 1   
   185  187  189 1   
@<TRIPOS>SUBSTRUCTURE
     1 MOL         1 TEMP              0 ****  ****    0 ROOT
