@<TRIPOS>MOLECULE
MOL
  189   185     1     0     0
SMALL
resp


@<TRIPOS>ATOM
      1 C1          0.0000    3.5740    4.7130 c3        1 MOL     -0.413538
      2 C2         -0.6420    3.2390    3.3610 c         1 MOL      0.653148
      3 O1          0.0690    3.3950    2.3780 o         1 MOL     -0.580977
      4 H1          0.1350    4.6530    4.7930 hc        1 MOL      0.102921
      5 H2         -0.6470    3.2300    5.5190 hc        1 MOL      0.102921
      6 H3          0.9690    3.0810    4.7870 hc        1 MOL      0.102921
      7 N1         -1.8190    2.7360    3.3210 n         1 MOL     -0.543030
      8 C3         -2.5360    2.0990    2.1950 c3        1 MOL      0.298568
      9 C4         -3.2780    3.1550    1.3720 c         1 MOL      0.220044
     10 O2         -4.5160    3.3190    1.4640 o         1 MOL     -0.449829
     11 C5         -3.4850    0.9800    2.6490 c3        1 MOL     -0.164469
     12 C6         -4.2140    0.2310    1.5110 c         1 MOL      0.670125
     13 O3         -3.5710    0.0750    0.4310 o         1 MOL     -0.648625
     14 O4         -5.3910   -0.2530    1.6810 o         1 MOL     -0.648625
     15 H4         -2.2720    2.5700    4.2150 hn        1 MOL      0.300987
     16 H5         -1.7920    1.6180    1.5680 h1        1 MOL      0.008960
     17 H6         -4.1700    1.2060    3.4720 hc        1 MOL      0.034020
     18 H7         -2.7950    0.2250    3.0160 hc        1 MOL      0.034020
     19 N2         -2.5110    3.8100    0.4640 n         1 MOL     -0.138638
     20 C7         -2.9690    5.0230   -0.2370 c3        1 MOL     -0.113672
     21 C8         -3.6280    4.8020   -1.5750 c         1 MOL      0.472373
     22 O5         -3.8580    5.7150   -2.4000 o         1 MOL     -0.545266
     23 C9         -1.7110    5.8860   -0.4270 c3        1 MOL      0.064354
     24 C10        -1.3200    6.6440    0.8130 c3        1 MOL      0.175516
     25 C11        -0.1890    7.6190    0.4010 c3        1 MOL     -0.118613
     26 C12         0.2290    8.5780    1.5710 c3        1 MOL     -0.044885
     27 N3          0.6920    7.7150    2.7050 n4        1 MOL     -0.381765
     28 H8         -1.5970    3.4010    0.3450 hn        1 MOL      0.254659
     29 H9         -3.6780    5.5130    0.4320 h1        1 MOL      0.100575
     30 H10        -1.8040    6.5630   -1.2740 hc        1 MOL      0.002659
     31 H11        -0.8870    5.2150   -0.6630 hc        1 MOL      0.002659
     32 H12        -0.9660    6.0490    1.6530 hc        1 MOL     -0.055380
     33 H13        -2.2320    7.1690    1.1080 hc        1 MOL     -0.055380
     34 H14        -0.4580    8.2910   -0.4150 hc        1 MOL      0.074994
     35 H15         0.6860    6.9920    0.2300 hc        1 MOL      0.074994
     36 H16        -0.6870    9.0870    1.8690 hx        1 MOL      0.105947
     37 H17         1.0100    9.2880    1.3010 hx        1 MOL      0.105947
     38 H18         1.2660    8.3690    3.2230 hn        1 MOL      0.335987
     39 H19        -0.0370    7.3810    3.3220 hn        1 MOL      0.335987
     40 H20         1.1450    6.8790    2.3550 hn        1 MOL      0.335987
     41 N4         -3.9400    3.5370   -1.8790 n         1 MOL     -0.218544
     42 C13        -4.8170    3.1790   -2.9710 c3        1 MOL      0.118824
     43 C14        -6.0150    2.2870   -2.6040 c         1 MOL      0.332039
     44 O6         -6.9740    2.1150   -3.3190 o         1 MOL     -0.467940
     45 C15        -4.0600    2.6290   -4.0880 c3        1 MOL     -0.308068
     46 C16        -3.1090    1.4910   -3.8110 c         1 MOL      0.869178
     47 O7         -3.2060    0.8340   -2.7480 o         1 MOL     -0.712403
     48 O8         -2.2080    1.1610   -4.5970 o         1 MOL     -0.712403
     49 H21        -3.4110    2.7650   -1.4910 hn        1 MOL      0.181775
     50 H22        -5.3290    4.0370   -3.4040 h1        1 MOL      0.080560
     51 H23        -3.4270    3.4520   -4.4360 hc        1 MOL      0.072113
     52 H24        -4.7390    2.2940   -4.8740 hc        1 MOL      0.072113
     53 N5         -6.0300    1.8540   -1.3040 n         1 MOL     -0.177508
     54 C17        -7.1930    1.1170   -0.7650 c3        1 MOL      0.020781
     55 C18        -7.5810   -0.2010   -1.3750 c         1 MOL      0.352633
     56 O9         -8.7370   -0.4830   -1.7260 o         1 MOL     -0.563577
     57 H25        -5.3290    2.2060   -0.6780 hn        1 MOL      0.077896
     58 H26        -8.1040    1.7040   -0.6050 h1        1 MOL      0.064808
     59 H27        -6.8930    0.9550    0.2640 h1        1 MOL      0.064808
     60 N6         -6.6350   -1.1000   -1.5050 n         1 MOL     -0.012706
     61 C19        -6.7960   -2.5340   -1.8530 c3        1 MOL      0.074891
     62 C20        -6.6920   -3.4500   -0.5720 c         1 MOL      0.297790
     63 O10        -6.8680   -4.6840   -0.6270 o         1 MOL     -0.515492
     64 C21        -5.6450   -2.9450   -2.8240 c3        1 MOL     -0.343893
     65 C22        -4.2240   -2.5150   -2.3750 c         1 MOL      0.828083
     66 O11        -3.8760   -2.5830   -1.2100 o         1 MOL     -0.738718
     67 O12        -3.3550   -2.2180   -3.2010 o         1 MOL     -0.738718
     68 H28        -5.7530   -0.8300   -1.0830 hn        1 MOL     -0.004438
     69 H29        -7.7870   -2.6710   -2.2910 h1        1 MOL      0.107208
     70 H30        -5.8480   -2.3270   -3.6980 hc        1 MOL      0.089701
     71 H31        -5.7270   -4.0220   -2.9780 hc        1 MOL      0.089701
     72 N7         -6.4450   -2.8620    0.5970 n         1 MOL     -0.129894
     73 C23        -6.3580   -3.5680    1.9370 c3        1 MOL     -0.226590
     74 C24        -5.0600   -4.2880    2.1450 c         1 MOL      0.551877
     75 O13        -5.0350   -5.1570    3.0490 o         1 MOL     -0.570562
     76 H32        -6.1990   -1.8820    0.6410 hn        1 MOL      0.158875
     77 H33        -7.1610   -4.3030    1.9150 h1        1 MOL      0.121999
     78 H34        -6.5020   -2.9240    2.7950 h1        1 MOL      0.121999
     79 N8         -4.0010   -3.8840    1.4610 n         1 MOL     -0.140799
     80 C25        -2.6200   -4.3020    1.6600 c3        1 MOL     -0.479871
     81 C26        -1.4890   -3.2410    1.6090 c         1 MOL      0.918799
     82 O14        -1.5330   -2.4010    0.7180 o         1 MOL     -0.763587
     83 C27        -2.2310   -5.3860    0.6530 c3        1 MOL      0.519231
     84 C28        -2.9470   -6.6850    0.8060 c3        1 MOL     -0.653969
     85 O15        -2.5120   -4.8900   -0.5960 oh        1 MOL     -0.616850
     86 H35        -4.2020   -3.1530    0.7850 hn        1 MOL      0.252456
     87 H36        -2.4940   -4.8260    2.6070 h1        1 MOL      0.114593
     88 H37        -1.1580   -5.5480    0.6830 h1        1 MOL      0.020459
     89 H38        -3.2850   -4.3250   -0.5810 ho        1 MOL      0.407326
     90 H39        -3.0030   -6.9580    1.8600 hc        1 MOL      0.171359
     91 H40        -3.9600   -6.6250    0.4070 hc        1 MOL      0.171359
     92 H41        -2.2830   -7.3590    0.2540 hc        1 MOL      0.171359
     93 N9         -0.5020   -3.3350    2.5140 n         1 MOL     -0.673913
     94 C29         0.6610   -2.3590    2.5170 c3        1 MOL      0.009005
     95 C30         1.9040   -3.0980    1.8990 c         1 MOL      0.439102
     96 O16         2.1900   -4.2710    2.1820 o         1 MOL     -0.531491
     97 C31         0.8690   -1.9370    3.9690 c3        1 MOL      0.189122
     98 C32        -0.3170   -1.1050    4.5380 c3        1 MOL      0.254968
     99 C33         2.1320   -1.0720    4.2090 c3        1 MOL     -0.470986
    100 C34        -0.3940   -1.0140    6.0670 c3        1 MOL     -0.286905
    101 H42        -0.6310   -4.0510    3.2150 hn        1 MOL      0.329140
    102 H43         0.3570   -1.5150    1.9140 h1        1 MOL      0.138146
    103 H44         0.9690   -2.7870    4.6410 hc        1 MOL      0.013925
    104 H45        -1.2490   -1.6110    4.2880 hc        1 MOL     -0.049575
    105 H46        -0.4730   -0.1550    4.0220 hc        1 MOL     -0.049575
    106 H47         2.2370   -0.7340    5.2460 hc        1 MOL      0.098985
    107 H48         3.0140   -1.6750    4.0060 hc        1 MOL      0.098985
    108 H49         2.0720   -0.3160    3.4370 hc        1 MOL      0.098985
    109 H50        -1.3900   -0.6020    6.2370 hc        1 MOL      0.060527
    110 H51        -0.2340   -2.0120    6.4900 hc        1 MOL      0.060527
    111 H52         0.3630   -0.3530    6.4860 hc        1 MOL      0.060527
    112 N10         2.3840   -2.4680    0.8260 n         1 MOL     -0.086297
    113 C35         3.6510   -2.8430    0.1450 c3        1 MOL     -0.201214
    114 C36         4.8620   -2.1250    0.6480 c         1 MOL      0.432771
    115 O17         4.7250   -1.0690    1.3060 o         1 MOL     -0.439464
    116 C37         3.5240   -2.4000   -1.3750 c3        1 MOL      0.405567
    117 C38         2.5690   -3.3210   -2.0720 c3        1 MOL     -0.518968
    118 O18         3.0720   -1.0990   -1.4390 oh        1 MOL     -0.540668
    119 H53         2.0270   -1.5370    0.6340 hn        1 MOL      0.250086
    120 H54         3.8800   -3.9000    0.2240 h1        1 MOL      0.094554
    121 H55         4.4900   -2.5150   -1.8750 h1        1 MOL     -0.060931
    122 H56         2.1900   -1.2320   -1.0710 ho        1 MOL      0.332087
    123 H57         1.6640   -3.2270   -1.4620 hc        1 MOL      0.138436
    124 H58         2.3340   -2.9550   -3.0700 hc        1 MOL      0.138436
    125 H59         2.9530   -4.3330   -2.1450 hc        1 MOL      0.138436
    126 N11         6.0650   -2.6940    0.5570 n         1 MOL     -0.193113
    127 C39         7.3950   -2.0580    0.7850 c3        1 MOL     -0.446859
    128 C40         7.4690   -0.6230    0.2560 c         1 MOL      0.439951
    129 O19         7.9740    0.2770    0.9240 o         1 MOL     -0.505132
    130 C41         8.5990   -2.8840    0.3570 c3        1 MOL      0.405392
    131 C42         8.6620   -4.3250    0.8810 c3        1 MOL     -0.409190
    132 O20         8.5860   -2.9400   -1.0260 oh        1 MOL     -0.627258
    133 H60         6.1240   -3.5470    0.0250 hn        1 MOL      0.191155
    134 H61         7.4740   -2.0720    1.8770 h1        1 MOL      0.199650
    135 H62         9.5330   -2.4280    0.6900 h1        1 MOL      0.085684
    136 H63         7.8190   -3.4660   -1.2890 ho        1 MOL      0.386925
    137 H64         7.6980   -4.7990    0.6810 hc        1 MOL      0.116463
    138 H65         9.4750   -4.9120    0.4680 hc        1 MOL      0.116463
    139 H66         8.6990   -4.3590    1.9700 hc        1 MOL      0.116463
    140 N12         6.9150   -0.3060   -0.9200 n         1 MOL     -0.114863
    141 C43         6.9480    1.0730   -1.5520 c3        1 MOL     -0.052697
    142 C44         5.9440    2.0360   -0.9640 c         1 MOL      0.311351
    143 O21         6.2030    3.2230   -0.7670 o         1 MOL     -0.509544
    144 C45         6.6920    0.9910   -3.0250 c3        1 MOL     -0.257975
    145 C46         7.4890   -0.0570   -3.8110 c3        1 MOL     -0.087431
    146 C47         8.9540    0.2050   -3.7220 c3        1 MOL     -0.095295
    147 C48         9.8060   -0.7310   -4.6080 c3        1 MOL     -0.015497
    148 N13        11.2340   -0.4740   -4.4290 n4        1 MOL     -0.205106
    149 H67         6.5870   -1.1120   -1.4340 hn        1 MOL      0.230489
    150 H68         7.9590    1.4510   -1.4030 h1        1 MOL      0.098336
    151 H69         6.9760    1.9280   -3.5080 hc        1 MOL      0.135818
    152 H70         5.6460    0.7750   -3.2390 hc        1 MOL      0.135818
    153 H71         7.1650    0.0990   -4.8400 hc        1 MOL      0.062030
    154 H72         7.4780   -1.0970   -3.5020 hc        1 MOL      0.062030
    155 H73         9.3620    0.1980   -2.7150 hc        1 MOL      0.076030
    156 H74         9.1100    1.2260   -4.0740 hc        1 MOL      0.076030
    157 H75         9.4670   -0.7160   -5.6410 hx        1 MOL      0.094437
    158 H76         9.6400   -1.7820   -4.3690 hx        1 MOL      0.094437
    159 H77        11.8360   -1.2410   -4.6970 hn        1 MOL      0.262777
    160 H78        11.5580    0.2480   -5.0720 hn        1 MOL      0.262777
    161 H79        11.6240   -0.1380   -3.5610 hn        1 MOL      0.262777
    162 N14         4.8380    1.6090   -0.3690 n         1 MOL      0.034104
    163 C49         3.9420    2.3410    0.5180 c3        1 MOL     -0.276656
    164 C50         4.4520    2.6220    1.9430 c         1 MOL      0.550091
    165 O22         4.1710    3.6400    2.5240 o         1 MOL     -0.587408
    166 C51         2.6680    1.5880    0.5890 c3        1 MOL      0.000501
    167 C52         1.7530    1.9530   -0.6050 c3        1 MOL     -0.065890
    168 C53         0.4910    1.0580   -0.6460 c         1 MOL      0.803345
    169 O23        -0.6420    1.5770   -0.8710 o         1 MOL     -0.790693
    170 O24         0.5640   -0.1510   -0.3140 o         1 MOL     -0.790693
    171 H80         4.5790    0.6420   -0.4830 hn        1 MOL      0.096602
    172 H81         3.7250    3.2900    0.0250 h1        1 MOL      0.144786
    173 H82         2.0470    1.8200    1.4540 hc        1 MOL      0.030017
    174 H83         2.8410    0.5250    0.7490 hc        1 MOL      0.030017
    175 H84         2.2360    1.7790   -1.5690 hc        1 MOL      0.001487
    176 H85         1.4440    2.9940   -0.5820 hc        1 MOL      0.001487
    177 N15         5.3000    1.8390    2.5630 n         1 MOL     -0.202528
    178 C54         6.0460    2.0550    3.8870 c3        1 MOL     -0.190354
    179 H86         7.1150    2.1410    3.6920 h1        1 MOL      0.097829
    180 H87         5.6890    2.9700    4.3610 h1        1 MOL      0.097829
    181 H88         5.8650    1.2070    4.5490 h1        1 MOL      0.097829
    182 H89         5.5210    1.0120    2.0390 hn        1 MOL      0.204275
    183 Ca1        -1.8840   -0.8000   -1.2680 Ca        1 MOL      1.783634
    184 O25        -0.9580   -3.2700   -1.8850 oh        1 MOL     -0.858158
    185 H90        -1.5590   -3.8920   -1.4980 ho        1 MOL      0.400603
    186 H91        -0.8160   -3.5870   -2.7750 ho        1 MOL      0.400603
    187 O26        -0.5540   -0.5160   -3.6180 oh        1 MOL     -0.858158
    188 H92        -1.0490    0.1620   -4.0600 ho        1 MOL      0.400603
    189 H93        -0.3610   -1.1620   -4.2910 ho        1 MOL      0.400603
@<TRIPOS>BOND
     1    1    2 1   
     2    1    4 1   
     3    1    5 1   
     4    1    6 1   
     5    2    3 2   
     6    2    7 1   
     7    7    8 1   
     8    7   15 1   
     9    8    9 1   
    10    8   11 1   
    11    8   16 1   
    12    9   10 2   
    13    9   19 1   
    14   11   12 1   
    15   11   17 1   
    16   11   18 1   
    17   12   13 1   
    18   12   14 1   
    19   19   20 1   
    20   19   28 1   
    21   20   21 1   
    22   20   23 1   
    23   20   29 1   
    24   21   22 2   
    25   21   41 1   
    26   23   24 1   
    27   23   30 1   
    28   23   31 1   
    29   24   25 1   
    30   24   32 1   
    31   24   33 1   
    32   25   26 1   
    33   25   34 1   
    34   25   35 1   
    35   26   27 1   
    36   26   36 1   
    37   26   37 1   
    38   27   38 1   
    39   27   39 1   
    40   27   40 1   
    41   41   42 1   
    42   41   49 1   
    43   42   43 1   
    44   42   45 1   
    45   42   50 1   
    46   43   44 2   
    47   43   53 1   
    48   45   46 1   
    49   45   51 1   
    50   45   52 1   
    51   46   47 1   
    52   46   48 1   
    53   53   54 1   
    54   53   57 1   
    55   54   55 1   
    56   54   58 1   
    57   54   59 1   
    58   55   56 2   
    59   55   60 1   
    60   60   61 1   
    61   60   68 1   
    62   61   62 1   
    63   61   64 1   
    64   61   69 1   
    65   62   63 2   
    66   62   72 1   
    67   64   65 1   
    68   64   70 1   
    69   64   71 1   
    70   65   66 1   
    71   65   67 1   
    72   72   73 1   
    73   72   76 1   
    74   73   74 1   
    75   73   77 1   
    76   73   78 1   
    77   74   75 2   
    78   74   79 1   
    79   79   80 1   
    80   79   86 1   
    81   80   81 1   
    82   80   83 1   
    83   80   87 1   
    84   81   82 2   
    85   81   93 1   
    86   83   84 1   
    87   83   85 1   
    88   83   88 1   
    89   84   90 1   
    90   84   91 1   
    91   84   92 1   
    92   85   89 1   
    93   93   94 1   
    94   93  101 1   
    95   94   95 1   
    96   94   97 1   
    97   94  102 1   
    98   95   96 2   
    99   95  112 1   
   100   97   98 1   
   101   97   99 1   
   102   97  103 1   
   103   98  100 1   
   104   98  104 1   
   105   98  105 1   
   106   99  106 1   
   107   99  107 1   
   108   99  108 1   
   109  100  109 1   
   110  100  110 1   
   111  100  111 1   
   112  112  113 1   
   113  112  119 1   
   114  113  114 1   
   115  113  116 1   
   116  113  120 1   
   117  114  115 2   
   118  114  126 1   
   119  116  117 1   
   120  116  118 1   
   121  116  121 1   
   122  117  123 1   
   123  117  124 1   
   124  117  125 1   
   125  118  122 1   
   126  126  127 1   
   127  126  133 1   
   128  127  128 1   
   129  127  130 1   
   130  127  134 1   
   131  128  129 2   
   132  128  140 1   
   133  130  131 1   
   134  130  132 1   
   135  130  135 1   
   136  131  137 1   
   137  131  138 1   
   138  131  139 1   
   139  132  136 1   
   140  140  141 1   
   141  140  149 1   
   142  141  142 1   
   143  141  144 1   
   144  141  150 1   
   145  142  143 2   
   146  142  162 1   
   147  144  145 1   
   148  144  151 1   
   149  144  152 1   
   150  145  146 1   
   151  145  153 1   
   152  145  154 1   
   153  146  147 1   
   154  146  155 1   
   155  146  156 1   
   156  147  148 1   
   157  147  157 1   
   158  147  158 1   
   159  148  159 1   
   160  148  160 1   
   161  148  161 1   
   162  162  163 1   
   163  162  171 1   
   164  163  164 1   
   165  163  166 1   
   166  163  172 1   
   167  164  165 2   
   168  164  177 1   
   169  166  167 1   
   170  166  173 1   
   171  166  174 1   
   172  167  168 1   
   173  167  175 1   
   174  167  176 1   
   175  168  169 1   
   176  168  170 1   
   177  177  178 1   
   178  177  182 1   
   179  178  179 1   
   180  178  180 1   
   181  178  181 1   
   182  184  185 1   
   183  184  186 1   
   184  187  188 1   
   185  187  189 1   
@<TRIPOS>SUBSTRUCTURE
     1 MOL         1 TEMP              0 ****  ****    0 ROOT
