@<TRIPOS>MOLECULE
MOL
  179   176     1     0     0
SMALL
resp


@<TRIPOS>ATOM
      1 C1          1.5070    3.0440    6.1560 c3        1 MOL     -0.370752
      2 C2          1.1630    2.5690    4.7610 c         1 MOL      0.734462
      3 O1          2.0750    2.3390    3.9770 o         1 MOL     -0.594254
      4 H1          1.5300    2.1900    6.8330 hc        1 MOL      0.094642
      5 H2          2.4850    3.5250    6.1460 hc        1 MOL      0.094642
      6 H3          0.7540    3.7560    6.4940 hc        1 MOL      0.094642
      7 N1         -0.1270    2.5650    4.3660 n         1 MOL     -0.495343
      8 C3         -0.6210    2.1750    3.0280 c3        1 MOL     -0.200190
      9 C4         -0.5700    3.4280    2.1070 c         1 MOL      0.642378
     10 O2         -1.2800    4.4500    2.2680 o         1 MOL     -0.586644
     11 C5         -2.0730    1.6640    3.2380 c3        1 MOL      0.156751
     12 C6         -2.9010    1.3180    2.0250 c         1 MOL      0.476182
     13 O3         -4.1500    1.1490    2.3010 o         1 MOL     -0.658588
     14 O4         -2.4000    1.2400    0.8890 o         1 MOL     -0.658588
     15 H4         -0.8000    2.7590    5.0820 hn        1 MOL      0.286731
     16 H5          0.0240    1.4140    2.5890 h1        1 MOL      0.095735
     17 H6         -2.6960    2.3060    3.8720 hc        1 MOL      0.013175
     18 H7         -1.9600    0.7640    3.8440 hc        1 MOL      0.013175
     19 N2          0.2690    3.3450    1.1020 n         1 MOL     -0.286314
     20 C7          0.6040    4.5150    0.1940 c3        1 MOL     -0.185182
     21 C8         -0.5410    5.0100   -0.6940 c         1 MOL      0.545663
     22 O5         -0.5040    6.1380   -1.2160 o         1 MOL     -0.577120
     23 C9          1.8520    4.2050   -0.5800 c3        1 MOL      0.020778
     24 C10         2.5260    5.3550   -1.2910 c3        1 MOL     -0.002473
     25 C11         3.8160    4.9490   -1.9290 c3        1 MOL     -0.018458
     26 C12         4.2440    6.0540   -2.8990 c3        1 MOL      0.051889
     27 N3          5.7130    5.8990   -3.2330 n4        1 MOL     -0.309924
     28 H8          0.6620    2.4410    0.8870 hn        1 MOL      0.188973
     29 H9          0.8210    5.4290    0.7440 h1        1 MOL      0.130268
     30 H10         1.5850    3.5150   -1.3780 hc        1 MOL      0.066482
     31 H11         2.5990    3.7740    0.0850 hc        1 MOL      0.066482
     32 H12         2.6560    6.1950   -0.6130 hc        1 MOL      0.016822
     33 H13         1.8380    5.7180   -2.0550 hc        1 MOL      0.016822
     34 H14         3.7120    4.0600   -2.5390 hc        1 MOL      0.046946
     35 H15         4.5090    4.8540   -1.0920 hc        1 MOL      0.046946
     36 H16         3.9430    7.0230   -2.5130 hx        1 MOL      0.074700
     37 H17         3.7520    5.8640   -3.8550 hx        1 MOL      0.074700
     38 H18         5.9520    6.4470   -4.0430 hn        1 MOL      0.310188
     39 H19         6.3570    6.1660   -2.4990 hn        1 MOL      0.310188
     40 H20         5.9640    4.9320   -3.3980 hn        1 MOL      0.310188
     41 N4         -1.6460    4.2870   -0.7030 n         1 MOL     -0.147540
     42 C13        -2.8160    4.6890   -1.4850 c3        1 MOL     -0.024593
     43 C14        -4.1460    4.7060   -0.6580 c         1 MOL      0.471208
     44 O6         -5.0680    5.4540   -1.0070 o         1 MOL     -0.535776
     45 C15        -2.9870    4.0920   -2.8880 c3        1 MOL     -0.306674
     46 C16        -2.3730    2.6750   -2.8950 c         1 MOL      0.694952
     47 O7         -1.3020    2.4980   -3.5370 o         1 MOL     -0.697161
     48 O8         -2.9200    1.7180   -2.2670 o         1 MOL     -0.697161
     49 H21        -1.4970    3.3950   -0.2480 hn        1 MOL      0.082044
     50 H22        -2.7350    5.7820   -1.5400 h1        1 MOL      0.117467
     51 H23        -2.4730    4.6090   -3.6920 hc        1 MOL      0.109852
     52 H24        -4.0590    3.9550   -3.0850 hc        1 MOL      0.109852
     53 N5         -4.3060    3.8770    0.3960 n         1 MOL     -0.276690
     54 C17        -5.5030    3.5730    1.0930 c3        1 MOL     -0.105257
     55 C18        -6.3470    2.3800    0.5970 c         1 MOL      0.474611
     56 O9         -7.4200    2.1300    1.2240 o         1 MOL     -0.562674
     57 H25        -3.6000    3.1600    0.5270 hn        1 MOL      0.217713
     58 H26        -6.1590    4.4360    1.1260 h1        1 MOL      0.115989
     59 H27        -5.2830    3.4760    2.1590 h1        1 MOL      0.115989
     60 N6         -5.9240    1.6970   -0.4950 n         1 MOL     -0.296503
     61 C19        -6.5900    0.5400   -1.0840 c3        1 MOL      0.051199
     62 C20        -6.7970   -0.6880   -0.1490 c         1 MOL      0.205955
     63 O10        -7.2990   -1.6990   -0.6630 o         1 MOL     -0.472259
     64 C21        -5.9430    0.1080   -2.4010 c3        1 MOL     -0.442670
     65 C22        -4.6660   -0.6900   -2.2250 c         1 MOL      0.718607
     66 N7         -4.0890   -1.1770   -3.2850 n         1 MOL     -0.698885
     67 O11        -4.1750   -0.9440   -1.1240 o         1 MOL     -0.506858
     68 H28        -5.0050    1.9210   -0.8390 hn        1 MOL      0.195817
     69 H29        -7.5790    0.8570   -1.4050 h1        1 MOL      0.118958
     70 H30        -5.7690    1.0420   -2.9370 hc        1 MOL      0.147503
     71 H31        -6.6140   -0.5600   -2.9220 hc        1 MOL      0.147503
     72 H32        -4.3790   -0.7990   -4.1710 hn        1 MOL      0.323051
     73 H33        -3.4760   -1.9730   -3.2450 hn        1 MOL      0.323051
     74 N8         -6.2410   -0.7180    1.0370 n         1 MOL      0.172085
     75 C23        -6.4880   -1.6710    2.0650 c3        1 MOL     -0.373622
     76 C24        -5.4460   -2.7070    2.2810 c         1 MOL      0.687334
     77 O12        -5.6540   -3.6050    3.1020 o         1 MOL     -0.583677
     78 H34        -5.6320    0.0720    1.2160 hn        1 MOL      0.163390
     79 H35        -7.4140   -2.1710    1.7750 h1        1 MOL      0.133524
     80 H36        -6.5250   -1.1060    3.0020 h1        1 MOL      0.133524
     81 N9         -4.2890   -2.6670    1.5330 n         1 MOL     -0.370273
     82 C25        -3.1570   -3.6480    1.5990 c3        1 MOL      0.021243
     83 C26        -1.8120   -3.0910    1.1620 c         1 MOL      0.693071
     84 O13        -1.6890   -2.0770    0.5160 o         1 MOL     -0.667473
     85 C27        -3.4690   -4.9290    0.8470 c3        1 MOL     -0.254207
     86 C28        -3.9800   -4.8120   -0.5860 ca        1 MOL      0.370755
     87 C29        -3.0860   -4.7140   -1.6930 ca        1 MOL     -0.448694
     88 C30        -5.3590   -4.8360   -0.8870 ca        1 MOL     -0.448694
     89 C31        -3.5120   -4.4490   -2.9740 ca        1 MOL      0.036747
     90 C32        -5.8570   -4.6060   -2.1650 ca        1 MOL      0.036747
     91 C33        -4.8770   -4.4080   -3.2240 ca        1 MOL      0.046173
     92 O14        -5.3370   -4.3820   -4.5120 oh        1 MOL     -0.405503
     93 H37        -4.3940   -1.9940    0.7930 hn        1 MOL      0.211092
     94 H38        -2.8810   -3.9000    2.6270 h1        1 MOL      0.052444
     95 H39        -4.2510   -5.4110    1.4290 hc        1 MOL      0.076209
     96 H40        -2.5480   -5.4880    0.7030 hc        1 MOL      0.076209
     97 H41        -2.0160   -4.6610   -1.5300 ha        1 MOL      0.202224
     98 H42        -6.0590   -4.8290   -0.0630 ha        1 MOL      0.202224
     99 H43        -2.7750   -4.4010   -3.7640 ha        1 MOL      0.104483
    100 H44        -6.9110   -4.6560   -2.3970 ha        1 MOL      0.104483
    101 H45        -4.5680   -4.2990   -5.0810 ho        1 MOL      0.305750
    102 N10        -0.7450   -3.6710    1.6990 n         1 MOL     -0.535075
    103 C34         0.5200   -2.9540    1.9280 c3        1 MOL     -0.034457
    104 C35         1.6270   -3.7700    1.2040 c         1 MOL      0.633743
    105 O15         1.7490   -4.9440    1.3470 o         1 MOL     -0.556503
    106 C36         0.7880   -2.7680    3.4500 c3        1 MOL      0.026238
    107 C37        -0.0510   -1.6350    4.0660 c3        1 MOL      0.201903
    108 C38         2.2270   -2.5010    3.7410 c3        1 MOL     -0.391118
    109 C39         0.3210   -0.9510    5.4120 c3        1 MOL     -0.212782
    110 H46        -0.9870   -4.4500    2.2850 hn        1 MOL      0.317606
    111 H47         0.5060   -1.9900    1.4140 h1        1 MOL      0.059801
    112 H48         0.6180   -3.7000    3.9730 hc        1 MOL      0.041177
    113 H49        -1.0940   -1.9390    4.1730 hc        1 MOL     -0.025783
    114 H50        -0.1520   -0.8670    3.3100 hc        1 MOL     -0.025783
    115 H51         2.5830   -1.5900    3.2540 hc        1 MOL      0.105288
    116 H52         2.3190   -2.3690    4.8180 hc        1 MOL      0.105288
    117 H53         2.7960   -3.4070    3.5320 hc        1 MOL      0.105288
    118 H54         1.1830   -0.3000    5.2140 hc        1 MOL      0.048276
    119 H55        -0.4760   -0.3180    5.7860 hc        1 MOL      0.048276
    120 H56         0.4970   -1.6730    6.2100 hc        1 MOL      0.048276
    121 N11         2.4040   -3.1940    0.2760 n         1 MOL     -0.352738
    122 C40         3.4960   -3.8340   -0.4290 c3        1 MOL     -0.090554
    123 C41         4.8890   -3.2980   -0.1200 c         1 MOL      0.628413
    124 O16         5.1230   -2.3120    0.6200 o         1 MOL     -0.628429
    125 C42         3.1540   -3.8050   -1.9130 c3        1 MOL      0.234679
    126 O17         2.7910   -2.5290   -2.4140 oh        1 MOL     -0.628026
    127 H57         2.3830   -2.1940    0.2060 hn        1 MOL      0.259478
    128 H58         3.5190   -4.8790   -0.1350 h1        1 MOL      0.080285
    129 H59         2.3610   -4.5330   -2.0960 h1        1 MOL     -0.008864
    130 H60         4.0220   -4.1500   -2.4810 h1        1 MOL     -0.008864
    131 H61         2.1970   -2.1490   -1.7650 ho        1 MOL      0.430168
    132 N12         5.9000   -3.9490   -0.6190 n         1 MOL     -0.460625
    133 C43         7.3230   -3.7340   -0.2180 c3        1 MOL      0.190928
    134 C44         7.8520   -2.4210   -0.5840 c         1 MOL      0.436437
    135 O18         8.6270   -1.8600    0.2040 o         1 MOL     -0.533639
    136 C45         8.1620   -4.8190   -0.8750 c3        1 MOL     -0.296407
    137 H62         5.7250   -4.7710   -1.1690 hn        1 MOL      0.258711
    138 H63         7.5230   -3.8200    0.8520 h1        1 MOL      0.082093
    139 H64         8.3500   -4.7350   -1.9460 hc        1 MOL      0.090776
    140 H65         9.1490   -4.9100   -0.4040 hc        1 MOL      0.090776
    141 H66         7.6240   -5.7420   -0.6720 hc        1 MOL      0.090776
    142 N13         7.5250   -1.8780   -1.7330 n         1 MOL     -0.311183
    143 C46         7.9590   -0.5430   -2.1210 c3        1 MOL      0.062563
    144 C47         7.1290    0.5620   -1.3890 c         1 MOL      0.390548
    145 O19         7.7080    1.6440   -1.2380 o         1 MOL     -0.522206
    146 C48         7.8540   -0.3830   -3.6740 c3        1 MOL     -0.278597
    147 H67         7.0020   -2.4240   -2.4100 hn        1 MOL      0.245670
    148 H68         8.9950   -0.3790   -1.8300 h1        1 MOL      0.122601
    149 H69         6.8320   -0.5740   -4.0070 hc        1 MOL      0.081308
    150 H70         8.2250    0.5560   -4.1050 hc        1 MOL      0.081308
    151 H71         8.4270   -1.2100   -4.0970 hc        1 MOL      0.081308
    152 N14         5.9240    0.2610   -0.8400 n         1 MOL     -0.193722
    153 C49         5.2250    1.1490    0.1090 c3        1 MOL     -0.138473
    154 C50         5.8830    1.1640    1.4970 c         1 MOL      0.655615
    155 O20         6.0440    2.2260    2.0780 o         1 MOL     -0.553130
    156 C51         3.7810    0.8440    0.4050 c3        1 MOL      0.224411
    157 C52         2.9600    0.6860   -0.8760 c3        1 MOL      0.181437
    158 C53         1.5740    0.2150   -0.6340 c         1 MOL      0.634918
    159 O21         1.2050   -0.9640   -0.8410 o         1 MOL     -0.697168
    160 O22         0.6570    0.9920   -0.2810 o         1 MOL     -0.697168
    161 H72         5.5580   -0.6400   -1.1410 hn        1 MOL      0.169163
    162 H73         5.2380    2.1380   -0.3600 h1        1 MOL     -0.015052
    163 H74         3.4120    1.6410    1.0570 hc        1 MOL     -0.039403
    164 H75         3.7200   -0.0180    1.0810 hc        1 MOL     -0.039403
    165 H76         3.4140    0.0080   -1.5890 hc        1 MOL     -0.106206
    166 H77         2.9240    1.6660   -1.3650 hc        1 MOL     -0.106206
    167 N15         6.2740   -0.0520    1.9860 n         1 MOL     -0.331830
    168 C54         7.1220   -0.1840    3.2150 c3        1 MOL     -0.368690
    169 H78         7.0480   -1.2010    3.5990 h1        1 MOL      0.144300
    170 H79         8.1600    0.0340    2.9650 h1        1 MOL      0.144300
    171 H80         6.7760    0.5170    3.9730 h1        1 MOL      0.144300
    172 H81         6.0290   -0.9290    1.5480 hn        1 MOL      0.316614
    173 Ca1        -1.4530   -0.0790   -1.1880 Ca        1 MOL      1.772875
    174 O23        -1.3700   -2.3940   -2.8090 oh        1 MOL     -0.933086
    175 H82        -1.3930   -2.3850   -3.7670 ho        1 MOL      0.425357
    176 H83        -0.7540   -3.0990   -2.5970 ho        1 MOL      0.425357
    177 O24        -0.1890    0.2720   -3.4820 oh        1 MOL     -0.933086
    178 H84         0.2720   -0.0370   -4.2610 ho        1 MOL      0.425357
    179 H85        -0.3690    1.2010   -3.6660 ho        1 MOL      0.425357
@<TRIPOS>BOND
     1    1    2 1   
     2    1    4 1   
     3    1    5 1   
     4    1    6 1   
     5    2    3 2   
     6    2    7 1   
     7    7    8 1   
     8    7   15 1   
     9    8    9 1   
    10    8   11 1   
    11    8   16 1   
    12    9   10 2   
    13    9   19 1   
    14   11   12 1   
    15   11   17 1   
    16   11   18 1   
    17   12   13 1   
    18   12   14 1   
    19   19   20 1   
    20   19   28 1   
    21   20   21 1   
    22   20   23 1   
    23   20   29 1   
    24   21   22 2   
    25   21   41 1   
    26   23   24 1   
    27   23   30 1   
    28   23   31 1   
    29   24   25 1   
    30   24   32 1   
    31   24   33 1   
    32   25   26 1   
    33   25   34 1   
    34   25   35 1   
    35   26   27 1   
    36   26   36 1   
    37   26   37 1   
    38   27   38 1   
    39   27   39 1   
    40   27   40 1   
    41   41   42 1   
    42   41   49 1   
    43   42   43 1   
    44   42   45 1   
    45   42   50 1   
    46   43   44 2   
    47   43   53 1   
    48   45   46 1   
    49   45   51 1   
    50   45   52 1   
    51   46   47 1   
    52   46   48 1   
    53   53   54 1   
    54   53   57 1   
    55   54   55 1   
    56   54   58 1   
    57   54   59 1   
    58   55   56 2   
    59   55   60 1   
    60   60   61 1   
    61   60   68 1   
    62   61   62 1   
    63   61   64 1   
    64   61   69 1   
    65   62   63 2   
    66   62   74 1   
    67   64   65 1   
    68   64   70 1   
    69   64   71 1   
    70   65   66 1   
    71   65   67 2   
    72   66   72 1   
    73   66   73 1   
    74   74   75 1   
    75   74   78 1   
    76   75   76 1   
    77   75   79 1   
    78   75   80 1   
    79   76   77 2   
    80   76   81 1   
    81   81   82 1   
    82   81   93 1   
    83   82   83 1   
    84   82   85 1   
    85   82   94 1   
    86   83   84 2   
    87   83  102 1   
    88   85   86 1   
    89   85   95 1   
    90   85   96 1   
    91   86   87 ar  
    92   86   88 ar  
    93   87   89 ar  
    94   87   97 1   
    95   88   90 ar  
    96   88   98 1   
    97   89   91 ar  
    98   89   99 1   
    99   90   91 ar  
   100   90  100 1   
   101   91   92 1   
   102   92  101 1   
   103  102  103 1   
   104  102  110 1   
   105  103  104 1   
   106  103  106 1   
   107  103  111 1   
   108  104  105 2   
   109  104  121 1   
   110  106  107 1   
   111  106  108 1   
   112  106  112 1   
   113  107  109 1   
   114  107  113 1   
   115  107  114 1   
   116  108  115 1   
   117  108  116 1   
   118  108  117 1   
   119  109  118 1   
   120  109  119 1   
   121  109  120 1   
   122  121  122 1   
   123  121  127 1   
   124  122  123 1   
   125  122  125 1   
   126  122  128 1   
   127  123  124 2   
   128  123  132 1   
   129  125  126 1   
   130  125  129 1   
   131  125  130 1   
   132  126  131 1   
   133  132  133 1   
   134  132  137 1   
   135  133  134 1   
   136  133  136 1   
   137  133  138 1   
   138  134  135 2   
   139  134  142 1   
   140  136  139 1   
   141  136  140 1   
   142  136  141 1   
   143  142  143 1   
   144  142  147 1   
   145  143  144 1   
   146  143  146 1   
   147  143  148 1   
   148  144  145 2   
   149  144  152 1   
   150  146  149 1   
   151  146  150 1   
   152  146  151 1   
   153  152  153 1   
   154  152  161 1   
   155  153  154 1   
   156  153  156 1   
   157  153  162 1   
   158  154  155 2   
   159  154  167 1   
   160  156  157 1   
   161  156  163 1   
   162  156  164 1   
   163  157  158 1   
   164  157  165 1   
   165  157  166 1   
   166  158  159 1   
   167  158  160 1   
   168  167  168 1   
   169  167  172 1   
   170  168  169 1   
   171  168  170 1   
   172  168  171 1   
   173  174  175 1   
   174  174  176 1   
   175  177  178 1   
   176  177  179 1   
@<TRIPOS>SUBSTRUCTURE
     1 MOL         1 TEMP              0 ****  ****    0 ROOT
