@<TRIPOS>MOLECULE
MOL
  172   171     1     0     0
SMALL
resp


@<TRIPOS>ATOM
      1 C1         -0.2260   -3.0420    5.7300 c3        1 MOL     -0.466051
      2 C2          0.2410   -2.9230    4.2970 c         1 MOL      0.729790
      3 O1         -0.3750   -3.5140    3.4400 o         1 MOL     -0.594937
      4 H1          0.6030   -2.8180    6.4020 hc        1 MOL      0.114082
      5 H2         -1.0380   -2.3360    5.9080 hc        1 MOL      0.114082
      6 H3         -0.5790   -4.0560    5.9140 hc        1 MOL      0.114082
      7 N1          1.2920   -2.1780    4.0170 n         1 MOL     -0.534787
      8 C3          1.8480   -1.9430    2.7300 c3        1 MOL      0.123524
      9 C4          2.4040   -3.1820    1.9810 c         1 MOL      0.528271
     10 O2          3.4680   -3.7280    2.3010 o         1 MOL     -0.602048
     11 C5          2.9770   -0.9850    2.8370 c3        1 MOL     -0.167679
     12 C6          3.7290   -0.5380    1.5030 c         1 MOL      0.439612
     13 O3          3.2450   -0.8360    0.3710 o         1 MOL     -0.613808
     14 O4          4.8830   -0.0570    1.5970 o         1 MOL     -0.613808
     15 H4          1.7450   -1.8070    4.8470 hn        1 MOL      0.276467
     16 H5          1.0260   -1.4640    2.2030 h1        1 MOL      0.025313
     17 H6          3.7170   -1.5060    3.4440 hc        1 MOL      0.055914
     18 H7          2.7090   -0.0880    3.4040 hc        1 MOL      0.055914
     19 N2          1.8010   -3.5870    0.9110 n         1 MOL     -0.392810
     20 C7          1.9330   -4.9320    0.3410 c3        1 MOL      0.152337
     21 C8          3.0950   -4.9040   -0.6430 c         1 MOL      0.277520
     22 O5          3.8360   -5.8910   -0.7690 o         1 MOL     -0.540521
     23 C9          0.6990   -5.2780   -0.4000 c3        1 MOL     -0.154208
     24 H8          1.0320   -3.0330    0.5500 hn        1 MOL      0.342028
     25 H9          2.1080   -5.7300    1.0610 h1        1 MOL      0.057546
     26 H10         0.4590   -4.5430   -1.1600 hc        1 MOL      0.036475
     27 H11         0.6560   -6.3110   -0.7380 hc        1 MOL      0.036475
     28 H12        -0.1020   -5.1840    0.3290 hc        1 MOL      0.036475
     29 N3          3.1990   -3.7980   -1.3200 n         1 MOL     -0.004304
     30 C10         4.4510   -3.5600   -2.0560 c3        1 MOL     -0.251787
     31 C11         5.6550   -3.3960   -1.1500 c         1 MOL      0.538927
     32 O6          6.7080   -3.8550   -1.5850 o         1 MOL     -0.551665
     33 C12         4.3940   -2.3620   -3.0610 c3        1 MOL     -0.107727
     34 C13         3.1230   -2.0980   -3.7840 c         1 MOL      0.580544
     35 O7          2.6790   -2.7530   -4.7500 o         1 MOL     -0.670477
     36 O8          2.4440   -1.1910   -3.3130 o         1 MOL     -0.670477
     37 H13         2.5190   -3.0530   -1.2200 hn        1 MOL      0.172456
     38 H14         4.5280   -4.4500   -2.6730 h1        1 MOL      0.133768
     39 H15         5.2530   -2.4100   -3.7260 hc        1 MOL      0.050788
     40 H16         4.5700   -1.4510   -2.4810 hc        1 MOL      0.050788
     41 N4          5.6280   -2.7980    0.0400 n         1 MOL     -0.326978
     42 C14         6.9430   -2.5200    0.7100 c3        1 MOL     -0.089256
     43 C15         7.6130   -1.3240    0.0910 c         1 MOL      0.453313
     44 O9          8.8050   -1.2150   -0.0540 o         1 MOL     -0.591263
     45 H17         4.7810   -2.3990    0.4160 hn        1 MOL      0.373682
     46 H18         7.6440   -3.3550    0.6980 h1        1 MOL      0.087139
     47 H19         6.6950   -2.3640    1.7620 h1        1 MOL      0.087139
     48 N5          6.8720   -0.3490   -0.4350 n         1 MOL     -0.136040
     49 C16         7.3460    0.7960   -1.2300 c3        1 MOL     -0.063050
     50 C17         7.3070    2.1360   -0.4780 c         1 MOL      0.401162
     51 O10         7.5830    3.1540   -1.0260 o         1 MOL     -0.539652
     52 C18         6.5090    0.8420   -2.5250 c3        1 MOL     -0.030369
     53 C19         5.1620    1.3850   -2.3050 c         1 MOL      0.512088
     54 N6          4.7610    2.2260   -3.1880 n         1 MOL     -0.685449
     55 O11         4.3450    1.0220   -1.4740 o         1 MOL     -0.625772
     56 H20         5.8870   -0.4590   -0.2390 hn        1 MOL      0.167961
     57 H21         8.4160    0.6820   -1.4530 h1        1 MOL      0.117852
     58 H22         6.3810   -0.1910   -2.8690 hc        1 MOL      0.033264
     59 H23         7.1070    1.3780   -3.2630 hc        1 MOL      0.033264
     60 H24         5.3230    2.4240   -4.0020 hn        1 MOL      0.341418
     61 H25         3.8560    2.6620   -3.0710 hn        1 MOL      0.341418
     62 N7          6.7290    2.1760    0.7210 n         1 MOL     -0.156808
     63 C20         6.5250    3.4360    1.4360 c3        1 MOL     -0.233861
     64 C21         5.1760    4.1660    1.4850 c         1 MOL      0.713501
     65 O12         5.1580    5.1910    2.1190 o         1 MOL     -0.622289
     66 H26         6.4400    1.2910    1.1030 hn        1 MOL      0.175889
     67 H27         7.2230    4.1720    1.0390 h1        1 MOL      0.099234
     68 H28         6.7770    3.2010    2.4670 h1        1 MOL      0.099234
     69 N8          4.1000    3.6340    0.9710 n         1 MOL     -0.469955
     70 C22         2.7920    4.3290    0.8730 c3        1 MOL      0.072865
     71 C23         1.6390    3.2820    0.8770 c         1 MOL      0.373387
     72 O13         1.8890    2.1110    0.6200 o         1 MOL     -0.477043
     73 C24         2.6650    5.2190   -0.4010 c3        1 MOL      0.228650
     74 C25         3.2610    6.6370   -0.3280 c3        1 MOL     -0.395663
     75 O14         3.2480    4.6010   -1.5050 oh        1 MOL     -0.576760
     76 H29         4.2440    2.9900    0.2080 hn        1 MOL      0.392030
     77 H30         2.6260    4.9060    1.7850 h1        1 MOL      0.087741
     78 H31         1.5970    5.3500   -0.5760 h1        1 MOL      0.011845
     79 H32         3.2260    5.2550   -2.2190 ho        1 MOL      0.402018
     80 H33         4.3400    6.5270   -0.2530 hc        1 MOL      0.106503
     81 H34         2.9550    7.2060   -1.2160 hc        1 MOL      0.106503
     82 H35         2.9160    7.1480    0.5710 hc        1 MOL      0.106503
     83 N9          0.4120    3.6510    1.2770 n         1 MOL     -0.247374
     84 C26        -0.7900    2.8160    1.4590 c3        1 MOL      0.022102
     85 C27        -1.6930    3.0220    0.2640 c         1 MOL      0.291208
     86 O15        -2.1810    4.1580    0.1390 o         1 MOL     -0.551338
     87 C28        -1.3990    3.2170    2.8570 c3        1 MOL      0.131957
     88 C29        -0.3250    3.1170    3.9470 c3        1 MOL      0.074998
     89 C30        -2.6430    2.4540    3.2570 c3        1 MOL     -0.062362
     90 C31        -0.9440    3.4620    5.3370 c3        1 MOL     -0.344921
     91 H36         0.2970    4.5940    1.6050 hn        1 MOL      0.184341
     92 H37        -0.5280    1.7560    1.5160 h1        1 MOL      0.069051
     93 H38        -1.7490    4.2420    2.8390 hc        1 MOL     -0.013046
     94 H39         0.5140    3.7820    3.7580 hc        1 MOL      0.002332
     95 H40         0.1920    2.1680    3.8170 hc        1 MOL      0.002332
     96 H41        -3.3450    2.9980    3.8850 hc        1 MOL      0.010775
     97 H42        -3.1650    2.1330    2.3640 hc        1 MOL      0.010775
     98 H43        -2.3480    1.5620    3.8160 hc        1 MOL      0.010775
     99 H44        -0.1870    3.3130    6.1040 hc        1 MOL      0.079222
    100 H45        -1.3210    4.4840    5.2860 hc        1 MOL      0.079222
    101 H46        -1.7770    2.7950    5.5430 hc        1 MOL      0.079222
    102 N10        -1.9510    2.0100   -0.5550 n         1 MOL     -0.128225
    103 C32        -2.9380    1.9630   -1.5670 c3        1 MOL      0.214071
    104 C33        -4.3220    1.5540   -0.9550 c         1 MOL      0.499075
    105 O16        -4.3190    1.1850    0.2040 o         1 MOL     -0.400106
    106 C34        -2.5910    0.9770   -2.6250 c3        1 MOL     -0.454694
    107 C35        -1.1630    1.1530   -3.1650 c         1 MOL      0.861791
    108 O17        -0.7890    2.2420   -3.6490 o         1 MOL     -0.732404
    109 O18        -0.3790    0.2220   -2.9570 o         1 MOL     -0.732404
    110 H47        -1.4740    1.1620   -0.2820 hn        1 MOL      0.102910
    111 H48        -2.9570    2.9790   -1.9650 h1        1 MOL      0.014291
    112 H49        -3.3850    0.9890   -3.3670 hc        1 MOL      0.104220
    113 H50        -2.4770    0.0010   -2.1400 hc        1 MOL      0.104220
    114 N11        -5.3960    1.4600   -1.7090 n         1 MOL     -0.863681
    115 C36        -6.7430    1.1000   -1.1780 c3        1 MOL      0.751400
    116 C37        -6.8940   -0.3180   -0.6390 c         1 MOL      0.090556
    117 O19        -7.5370   -0.4610    0.4360 o         1 MOL     -0.499911
    118 C38        -7.7910    1.5260   -2.2580 c3        1 MOL     -0.170140
    119 C39        -9.1980    1.4650   -1.8440 ca        1 MOL      0.095974
    120 C40       -10.1340    0.5780   -2.4650 ca        1 MOL     -0.182139
    121 C41        -9.6720    2.2610   -0.7850 ca        1 MOL     -0.182139
    122 C42       -11.5000    0.6350   -2.1200 ca        1 MOL     -0.087310
    123 C43       -10.9910    2.2140   -0.3810 ca        1 MOL     -0.087310
    124 C44       -11.9510    1.4210   -1.0770 ca        1 MOL     -0.123050
    125 H51        -5.3670    1.8500   -2.6380 hn        1 MOL      0.366558
    126 H52        -6.9650    1.7920   -0.3530 h1        1 MOL     -0.031831
    127 H53        -7.5860    1.0540   -3.2230 hc        1 MOL      0.033755
    128 H54        -7.6070    2.5810   -2.4830 hc        1 MOL      0.033755
    129 H55        -9.8040   -0.0250   -3.2890 ha        1 MOL      0.115349
    130 H56        -8.9580    2.8200   -0.1930 ha        1 MOL      0.115349
    131 H57       -12.2330    0.0740   -2.7000 ha        1 MOL      0.100628
    132 H58       -11.3620    2.7720    0.4710 ha        1 MOL      0.100628
    133 H59       -13.0000    1.5450   -0.8610 ha        1 MOL      0.101683
    134 N12        -6.3780   -1.3790   -1.2220 n         1 MOL      0.013999
    135 C45        -6.5440   -2.6600   -0.6640 c3        1 MOL      0.151203
    136 C46        -5.5980   -2.9020    0.5560 c         1 MOL      0.206933
    137 O20        -5.7730   -3.7250    1.3650 o         1 MOL     -0.481326
    138 C47        -6.1090   -3.7430   -1.6560 c3        1 MOL     -0.122233
    139 C48        -6.3680   -2.9840   -2.9160 c3        1 MOL      0.070526
    140 C49        -5.9390   -1.5450   -2.5810 c3        1 MOL     -0.217384
    141 H60        -7.5480   -2.8680   -0.2800 h1        1 MOL      0.059152
    142 H61        -5.0580   -3.9890   -1.5110 hc        1 MOL      0.058902
    143 H62        -6.8360   -4.5470   -1.5500 hc        1 MOL      0.058902
    144 H63        -5.8300   -3.3740   -3.7790 hc        1 MOL      0.001883
    145 H64        -7.4380   -3.0580   -3.1170 hc        1 MOL      0.001883
    146 H65        -4.8530   -1.4510   -2.6360 h1        1 MOL      0.093771
    147 H66        -6.4470   -0.8150   -3.1990 h1        1 MOL      0.093771
    148 N13        -4.5700   -2.0560    0.7730 n         1 MOL     -0.019746
    149 C50        -3.6250   -2.0830    1.9030 c3        1 MOL     -0.179923
    150 C51        -4.3470   -1.2900    3.0900 c         1 MOL      0.555779
    151 O21        -4.2160   -1.7100    4.1820 o         1 MOL     -0.562469
    152 C52        -2.3040   -1.4260    1.5820 c3        1 MOL      0.086282
    153 C53        -1.6010   -2.0360    0.4070 c3        1 MOL      0.009826
    154 C54        -0.3880   -1.2680   -0.0370 c         1 MOL      0.540165
    155 O22         0.4170   -1.8360   -0.8560 o         1 MOL     -0.642441
    156 O23        -0.2310   -0.0710    0.2530 o         1 MOL     -0.642441
    157 H67        -4.2660   -1.4710    0.0000 hn        1 MOL      0.166941
    158 H68        -3.4060   -3.1160    2.1680 h1        1 MOL      0.115201
    159 H69        -1.7170   -1.3500    2.5030 hc        1 MOL      0.012452
    160 H70        -2.4800   -0.3640    1.4280 hc        1 MOL      0.012452
    161 H71        -2.3290   -2.1250   -0.3920 hc        1 MOL     -0.010571
    162 H72        -1.3290   -3.0520    0.6920 hc        1 MOL     -0.010571
    163 N14        -5.1580   -0.3210    2.7110 n         1 MOL     -0.136742
    164 C55        -5.9750    0.3800    3.7070 c3        1 MOL     -0.183482
    165 H73        -6.9870    0.5060    3.3230 h1        1 MOL      0.071568
    166 H74        -6.0070   -0.2040    4.6270 h1        1 MOL      0.071568
    167 H75        -5.5400    1.3580    3.9120 h1        1 MOL      0.071568
    168 H76        -5.0360    0.1300    1.8110 hn        1 MOL      0.108359
    169 Ca1         1.8060    0.2600   -1.3810 Ca        1 MOL      1.690780
    170 O24         1.5200    2.4960   -2.4320 oh        1 MOL     -0.916066
    171 H77         1.7890    3.3500   -2.0800 ho        1 MOL      0.414957
    172 H78         0.6800    2.6710   -2.8480 ho        1 MOL      0.414957
@<TRIPOS>BOND
     1    1    2 1   
     2    1    4 1   
     3    1    5 1   
     4    1    6 1   
     5    2    3 2   
     6    2    7 1   
     7    7    8 1   
     8    7   15 1   
     9    8    9 1   
    10    8   11 1   
    11    8   16 1   
    12    9   10 2   
    13    9   19 1   
    14   11   12 1   
    15   11   17 1   
    16   11   18 1   
    17   12   13 1   
    18   12   14 1   
    19   19   20 1   
    20   19   24 1   
    21   20   21 1   
    22   20   23 1   
    23   20   25 1   
    24   21   22 2   
    25   21   29 1   
    26   23   26 1   
    27   23   27 1   
    28   23   28 1   
    29   29   30 1   
    30   29   37 1   
    31   30   31 1   
    32   30   33 1   
    33   30   38 1   
    34   31   32 2   
    35   31   41 1   
    36   33   34 1   
    37   33   39 1   
    38   33   40 1   
    39   34   35 1   
    40   34   36 1   
    41   41   42 1   
    42   41   45 1   
    43   42   43 1   
    44   42   46 1   
    45   42   47 1   
    46   43   44 2   
    47   43   48 1   
    48   48   49 1   
    49   48   56 1   
    50   49   50 1   
    51   49   52 1   
    52   49   57 1   
    53   50   51 2   
    54   50   62 1   
    55   52   53 1   
    56   52   58 1   
    57   52   59 1   
    58   53   54 1   
    59   53   55 2   
    60   54   60 1   
    61   54   61 1   
    62   62   63 1   
    63   62   66 1   
    64   63   64 1   
    65   63   67 1   
    66   63   68 1   
    67   64   65 2   
    68   64   69 1   
    69   69   70 1   
    70   69   76 1   
    71   70   71 1   
    72   70   73 1   
    73   70   77 1   
    74   71   72 2   
    75   71   83 1   
    76   73   74 1   
    77   73   75 1   
    78   73   78 1   
    79   74   80 1   
    80   74   81 1   
    81   74   82 1   
    82   75   79 1   
    83   83   84 1   
    84   83   91 1   
    85   84   85 1   
    86   84   87 1   
    87   84   92 1   
    88   85   86 2   
    89   85  102 1   
    90   87   88 1   
    91   87   89 1   
    92   87   93 1   
    93   88   90 1   
    94   88   94 1   
    95   88   95 1   
    96   89   96 1   
    97   89   97 1   
    98   89   98 1   
    99   90   99 1   
   100   90  100 1   
   101   90  101 1   
   102  102  103 1   
   103  102  110 1   
   104  103  104 1   
   105  103  106 1   
   106  103  111 1   
   107  104  105 2   
   108  104  114 1   
   109  106  107 1   
   110  106  112 1   
   111  106  113 1   
   112  107  108 1   
   113  107  109 1   
   114  114  115 1   
   115  114  125 1   
   116  115  116 1   
   117  115  118 1   
   118  115  126 1   
   119  116  117 2   
   120  116  134 1   
   121  118  119 1   
   122  118  127 1   
   123  118  128 1   
   124  119  120 ar  
   125  119  121 ar  
   126  120  122 ar  
   127  120  129 1   
   128  121  123 ar  
   129  121  130 1   
   130  122  124 ar  
   131  122  131 1   
   132  123  124 ar  
   133  123  132 1   
   134  124  133 1   
   135  134  135 1   
   136  134  140 1   
   137  135  136 1   
   138  135  138 1   
   139  135  141 1   
   140  136  137 2   
   141  136  148 1   
   142  138  139 1   
   143  138  142 1   
   144  138  143 1   
   145  139  140 1   
   146  139  144 1   
   147  139  145 1   
   148  140  146 1   
   149  140  147 1   
   150  148  149 1   
   151  148  157 1   
   152  149  150 1   
   153  149  152 1   
   154  149  158 1   
   155  150  151 2   
   156  150  163 1   
   157  152  153 1   
   158  152  159 1   
   159  152  160 1   
   160  153  154 1   
   161  153  161 1   
   162  153  162 1   
   163  154  155 1   
   164  154  156 1   
   165  163  164 1   
   166  163  168 1   
   167  164  165 1   
   168  164  166 1   
   169  164  167 1   
   170  170  171 1   
   171  170  172 1   
@<TRIPOS>SUBSTRUCTURE
     1 MOL         1 TEMP              0 ****  ****    0 ROOT
