@<TRIPOS>MOLECULE
MOL
  189   185     1     0     0
SMALL
resp


@<TRIPOS>ATOM
      1 C1         -0.7110    2.9200   -4.9860 c3        1 MOL     -0.241647
      2 C2         -0.0580    2.5840   -3.6100 c         1 MOL      0.541311
      3 O1         -0.6090    2.9410   -2.5770 o         1 MOL     -0.565576
      4 H1         -1.5930    2.2980   -5.1310 hc        1 MOL      0.064266
      5 H2         -1.0010    3.9710   -5.0050 hc        1 MOL      0.064266
      6 H3          0.0050    2.7260   -5.7860 hc        1 MOL      0.064266
      7 N1          1.1920    2.1020   -3.5690 n         1 MOL     -0.411010
      8 C3          1.9240    1.7180   -2.3870 c3        1 MOL      0.117086
      9 C4          2.7630    2.9010   -1.8180 c         1 MOL      0.249782
     10 O2          3.8670    3.1770   -2.3030 o         1 MOL     -0.475630
     11 C5          2.9520    0.5620   -2.7310 c3        1 MOL     -0.417376
     12 C6          3.8170    0.1590   -1.5020 c         1 MOL      0.777902
     13 O3          3.4880    0.5710   -0.3670 o         1 MOL     -0.660510
     14 O4          4.7910   -0.6090   -1.6130 o         1 MOL     -0.660510
     15 H4          1.5480    1.6920   -4.4170 hn        1 MOL      0.282026
     16 H5          1.2500    1.3790   -1.5980 h1        1 MOL      0.080661
     17 H6          3.6440    0.8590   -3.5170 hc        1 MOL      0.112860
     18 H7          2.4560   -0.3640   -3.0020 hc        1 MOL      0.112860
     19 N2          2.2190    3.5980   -0.8030 n         1 MOL     -0.044489
     20 C7          2.6040    5.0010   -0.4380 c3        1 MOL     -0.049049
     21 C8          3.5690    5.0700    0.7700 c         1 MOL      0.448710
     22 O5          4.3960    5.9450    0.8360 o         1 MOL     -0.552375
     23 C9          1.3900    5.8990   -0.3450 c3        1 MOL     -0.124731
     24 C10         0.7360    6.3280   -1.6770 c3        1 MOL      0.226259
     25 C11        -0.1750    7.4810   -1.3900 c3        1 MOL      0.007408
     26 C12        -0.6710    8.1800   -2.6680 c3        1 MOL     -0.239709
     27 N3         -1.6410    7.3720   -3.4110 n4        1 MOL     -0.166692
     28 H8          1.2800    3.3770   -0.4990 hn        1 MOL      0.250466
     29 H9          3.1620    5.3870   -1.2930 h1        1 MOL      0.076656
     30 H10         1.5960    6.7410    0.3130 hc        1 MOL      0.023416
     31 H11         0.6150    5.2800    0.1170 hc        1 MOL      0.023416
     32 H12         0.0940    5.4860   -1.9450 hc        1 MOL     -0.048814
     33 H13         1.4270    6.5530   -2.4950 hc        1 MOL     -0.048814
     34 H14         0.3090    8.2160   -0.7540 hc        1 MOL      0.049412
     35 H15        -0.9810    7.1470   -0.7370 hc        1 MOL      0.049412
     36 H16         0.1590    8.1780   -3.3740 hx        1 MOL      0.141699
     37 H17        -1.1460    9.1310   -2.4240 hx        1 MOL      0.141699
     38 H18        -2.4630    7.1440   -2.8630 hn        1 MOL      0.288179
     39 H19        -2.0110    7.7310   -4.2800 hn        1 MOL      0.288179
     40 H20        -1.1190    6.5390   -3.6340 hn        1 MOL      0.288179
     41 N4          3.5220    4.0530    1.5830 n         1 MOL     -0.209287
     42 C13         4.5870    3.7500    2.5800 c3        1 MOL      0.046316
     43 C14         5.7790    2.9730    1.9060 c         1 MOL      0.422503
     44 O6          6.9220    3.1640    2.3260 o         1 MOL     -0.562700
     45 C15         3.9590    3.2300    3.8260 c3        1 MOL     -0.325673
     46 C16         2.9220    2.1100    3.7090 c         1 MOL      0.837849
     47 O7          2.7750    1.4240    2.6750 o         1 MOL     -0.748190
     48 O8          2.2230    1.8150    4.7100 o         1 MOL     -0.748190
     49 H21         2.7940    3.3680    1.4670 hn        1 MOL      0.118855
     50 H22         4.9520    4.7540    2.7920 h1        1 MOL      0.089237
     51 H23         3.4470    4.0930    4.2450 hc        1 MOL      0.091092
     52 H24         4.7480    2.9150    4.5130 hc        1 MOL      0.091092
     53 N5          5.5990    2.1590    0.8790 n         1 MOL      0.013709
     54 C17         6.6480    1.7640   -0.0180 c3        1 MOL     -0.184918
     55 C18         7.1810    0.3880    0.3260 c         1 MOL      0.617635
     56 O9          8.3960    0.1860    0.0920 o         1 MOL     -0.594781
     57 H25         4.6540    1.9950    0.5630 hn        1 MOL      0.052111
     58 H26         7.4840    2.4690   -0.0990 h1        1 MOL      0.098553
     59 H27         6.1520    1.6970   -0.9770 h1        1 MOL      0.098553
     60 N6          6.3540   -0.5550    0.8510 n         1 MOL     -0.290605
     61 C19         6.8450   -1.6990    1.5130 c3        1 MOL     -0.126635
     62 C20         7.0080   -2.9300    0.6010 c         1 MOL      0.420308
     63 O10         7.5820   -3.9360    0.9880 o         1 MOL     -0.541493
     64 C21         6.1550   -1.8950    2.8760 c3        1 MOL     -0.049945
     65 C22         4.6180   -1.8950    2.9350 c         1 MOL      0.647033
     66 O11         3.9810   -1.8840    1.8990 o         1 MOL     -0.623484
     67 O12         4.1210   -1.8200    4.0560 o         1 MOL     -0.623484
     68 H28         5.3550   -0.3860    0.8250 hn        1 MOL      0.081767
     69 H29         7.8860   -1.5650    1.8280 h1        1 MOL      0.137181
     70 H30         6.5050   -1.1350    3.5760 hc        1 MOL      0.038056
     71 H31         6.5080   -2.7950    3.3800 hc        1 MOL      0.038056
     72 N7          6.5000   -2.9120   -0.6530 n         1 MOL     -0.127207
     73 C23         6.4850   -3.9450   -1.7480 c3        1 MOL     -0.334096
     74 C24         5.1040   -4.5770   -1.7690 c         1 MOL      0.636996
     75 O13         4.9900   -5.6810   -2.2910 o         1 MOL     -0.589156
     76 H32         6.0920   -2.0490   -0.9860 hn        1 MOL      0.209287
     77 H33         7.2320   -4.7040   -1.5250 h1        1 MOL      0.147224
     78 H34         6.5080   -3.4780   -2.7320 h1        1 MOL      0.147224
     79 N8          4.1310   -3.9720   -1.1340 n         1 MOL     -0.264756
     80 C25         2.7830   -4.5730   -1.0930 c3        1 MOL     -0.254308
     81 C26         1.6370   -3.4520   -1.2360 c         1 MOL      0.749847
     82 O14         1.6930   -2.4610   -0.4840 o         1 MOL     -0.663307
     83 C27         2.4720   -5.6410    0.0150 c3        1 MOL      0.480004
     84 C28         3.2210   -6.9830   -0.1240 c3        1 MOL     -0.564063
     85 O15         2.7000   -5.0710    1.2670 oh        1 MOL     -0.682069
     86 H35         4.2770   -3.1500   -0.5680 hn        1 MOL      0.177993
     87 H36         2.5970   -5.0900   -2.0430 h1        1 MOL      0.075845
     88 H37         1.4150   -5.8730   -0.0790 h1        1 MOL      0.011819
     89 H38         3.6340   -4.8950    1.4210 ho        1 MOL      0.437327
     90 H39         3.0870   -7.3680   -1.1340 hc        1 MOL      0.157674
     91 H40         4.2810   -6.7970    0.0580 hc        1 MOL      0.157674
     92 H41         2.8470   -7.6940    0.6100 hc        1 MOL      0.157674
     93 N9          0.5620   -3.6900   -2.0330 n         1 MOL     -0.706688
     94 C29        -0.6910   -2.8980   -2.1090 c3        1 MOL      0.310538
     95 C30        -1.7190   -3.6750   -1.2550 c         1 MOL      0.412956
     96 O16        -1.8730   -4.8750   -1.4010 o         1 MOL     -0.553711
     97 C31        -1.0560   -2.7640   -3.5790 c3        1 MOL      0.075357
     98 C32        -0.0310   -1.7850   -4.2120 c3        1 MOL      0.390699
     99 C33        -2.4170   -2.0380   -3.7470 c3        1 MOL     -0.369844
    100 C34        -0.1500   -1.9390   -5.7760 c3        1 MOL     -0.241949
    101 H42         0.5320   -4.6320   -2.3980 hn        1 MOL      0.316447
    102 H43        -0.5220   -1.8960   -1.7010 h1        1 MOL      0.041083
    103 H44        -1.0680   -3.7700   -3.9850 hc        1 MOL      0.028991
    104 H45         0.9520   -2.2300   -4.1300 hc        1 MOL     -0.089547
    105 H46         0.0130   -0.7450   -3.8880 hc        1 MOL     -0.089547
    106 H47        -3.1370   -2.8500   -3.6090 hc        1 MOL      0.053135
    107 H48        -2.6670   -1.2620   -3.0210 hc        1 MOL      0.053135
    108 H49        -2.4710   -1.6860   -4.7700 hc        1 MOL      0.053135
    109 H50        -0.1040   -3.0100   -5.9770 hc        1 MOL      0.043996
    110 H51        -0.9740   -1.3640   -6.1820 hc        1 MOL      0.043996
    111 H52         0.6910   -1.4900   -6.2920 hc        1 MOL      0.043996
    112 N10        -2.4980   -2.9280   -0.4600 n         1 MOL     -0.044591
    113 C35        -3.7080   -3.2890    0.3340 c3        1 MOL      0.041904
    114 C36        -5.0320   -2.7190   -0.2500 c         1 MOL      0.333130
    115 O17        -5.0230   -1.7780   -1.0540 o         1 MOL     -0.370925
    116 C37        -3.5350   -2.7520    1.8020 c3        1 MOL      0.053626
    117 C38        -2.2050   -3.1440    2.5370 c3        1 MOL     -0.269857
    118 O18        -3.4690   -1.3630    1.7660 oh        1 MOL     -0.358079
    119 H53        -2.1880   -1.9910   -0.2760 hn        1 MOL      0.055749
    120 H54        -3.7780   -4.3770    0.3580 h1        1 MOL      0.064655
    121 H55        -4.3940   -3.0860    2.3910 h1        1 MOL      0.027004
    122 H56        -3.0700   -1.0030    2.5700 ho        1 MOL      0.345545
    123 H57        -2.2720   -4.2130    2.7250 hc        1 MOL      0.087944
    124 H58        -1.3380   -2.9740    1.9120 hc        1 MOL      0.087944
    125 H59        -2.1370   -2.7330    3.5450 hc        1 MOL      0.087944
    126 N11        -6.1920   -3.2790    0.1210 n         1 MOL     -0.304520
    127 C39        -7.4650   -2.7140   -0.2870 c3        1 MOL     -0.165021
    128 C40        -7.6240   -1.1730    0.0520 c         1 MOL      0.473558
    129 O19        -8.3460   -0.4520   -0.6380 o         1 MOL     -0.528639
    130 C41        -8.6350   -3.4100    0.3240 c3        1 MOL      0.374195
    131 C42        -8.7800   -4.8130   -0.1910 c3        1 MOL     -0.322956
    132 O20        -8.4270   -3.5450    1.7040 oh        1 MOL     -0.679169
    133 H60        -6.1940   -4.0150    0.8200 hn        1 MOL      0.266148
    134 H61        -7.5170   -2.7480   -1.3740 h1        1 MOL      0.136844
    135 H62        -9.5260   -2.8770   -0.0260 h1        1 MOL      0.038022
    136 H63        -8.6620   -4.4350    1.9610 ho        1 MOL      0.434832
    137 H64        -9.6200   -5.2410    0.3450 hc        1 MOL      0.084617
    138 H65        -8.9980   -4.7910   -1.2650 hc        1 MOL      0.084617
    139 H66        -7.9640   -5.4860    0.0630 hc        1 MOL      0.084617
    140 N12        -6.9880   -0.6420    1.0720 n         1 MOL     -0.187447
    141 C43        -6.9600    0.7320    1.4220 c3        1 MOL     -0.096110
    142 C44        -6.1900    1.6270    0.4700 c         1 MOL      0.410155
    143 O21        -6.6430    2.7470    0.1670 o         1 MOL     -0.545271
    144 C45        -6.4760    0.9410    2.9190 c3        1 MOL     -0.043982
    145 C46        -6.2100    2.4030    3.2530 c3        1 MOL      0.024492
    146 C47        -5.6510    2.4920    4.7040 c3        1 MOL     -0.043981
    147 C48        -6.4060    1.7850    5.8030 c3        1 MOL      0.071198
    148 N13        -7.6750    2.5610    6.1580 n4        1 MOL     -0.367650
    149 H67        -6.4550   -1.2820    1.6530 hn        1 MOL      0.177888
    150 H68        -7.9640    1.1530    1.3950 h1        1 MOL      0.115527
    151 H69        -5.5440    0.3810    3.0380 hc        1 MOL      0.018650
    152 H70        -7.3170    0.6590    3.5550 hc        1 MOL      0.018650
    153 H71        -7.1710    2.8940    3.1150 hc        1 MOL      0.011339
    154 H72        -5.4980    2.8450    2.5670 hc        1 MOL      0.011339
    155 H73        -5.5700    3.5440    4.9650 hc        1 MOL      0.053252
    156 H74        -4.6350    2.1110    4.7460 hc        1 MOL      0.053252
    157 H75        -5.7470    1.8420    6.6600 hx        1 MOL      0.080120
    158 H76        -6.5050    0.7110    5.6730 hx        1 MOL      0.080120
    159 H77        -7.5020    3.5530    6.1850 hn        1 MOL      0.287313
    160 H78        -8.4390    2.4140    5.5190 hn        1 MOL      0.287313
    161 H79        -8.1620    2.2070    6.9660 hn        1 MOL      0.287313
    162 N14        -5.0010    1.2430   -0.0060 n         1 MOL      0.042192
    163 C49        -4.1940    1.8890   -1.0290 c3        1 MOL     -0.090539
    164 C50        -4.6480    1.9220   -2.4770 c         1 MOL      0.482998
    165 O22        -4.5080    2.9500   -3.1240 o         1 MOL     -0.579184
    166 C51        -2.7480    1.2550   -0.8710 c3        1 MOL      0.120196
    167 C52        -1.8680    2.0010    0.0710 c3        1 MOL     -0.402584
    168 C53        -0.6100    1.0850    0.2800 c         1 MOL      0.817751
    169 O23         0.5120    1.5740    0.5840 o         1 MOL     -0.771865
    170 O24        -0.5850   -0.1380    0.0250 o         1 MOL     -0.771865
    171 H80        -4.6770    0.3360    0.3020 hn        1 MOL     -0.033544
    172 H81        -4.0220    2.9410   -0.8130 h1        1 MOL      0.063232
    173 H82        -2.3030    1.2720   -1.8670 hc        1 MOL      0.043974
    174 H83        -2.8530    0.2390   -0.4980 hc        1 MOL      0.043974
    175 H84        -2.4420    2.0430    0.9960 hc        1 MOL      0.089936
    176 H85        -1.6870    3.0240   -0.2390 hc        1 MOL      0.089936
    177 N15        -5.3350    0.9010   -2.9770 n         1 MOL     -0.171606
    178 C54        -6.3340    0.9080   -4.1140 c3        1 MOL     -0.180340
    179 H86        -5.9240    0.3590   -4.9620 h1        1 MOL      0.094391
    180 H87        -7.2590    0.4340   -3.7880 h1        1 MOL      0.094391
    181 H88        -6.5380    1.9370   -4.4130 h1        1 MOL      0.094391
    182 H89        -5.4710    0.1120   -2.3570 hn        1 MOL      0.170045
    183 Ca1         1.8270   -0.5580    1.2670 Ca        1 MOL      1.762813
    184 O25         0.5250   -0.1970    3.7230 oh        1 MOL     -0.909644
    185 H90         0.7200   -0.7160    4.5010 ho        1 MOL      0.432550
    186 H91         0.9790    0.6340    3.8600 ho        1 MOL      0.432550
    187 O26         1.1970   -2.7890    2.6660 oh        1 MOL     -0.909644
    188 H92         0.6210   -3.3300    3.2200 ho        1 MOL      0.432550
    189 H93         1.6910   -3.4140    2.1530 ho        1 MOL      0.432550
@<TRIPOS>BOND
     1    1    2 1   
     2    1    4 1   
     3    1    5 1   
     4    1    6 1   
     5    2    3 2   
     6    2    7 1   
     7    7    8 1   
     8    7   15 1   
     9    8    9 1   
    10    8   11 1   
    11    8   16 1   
    12    9   10 2   
    13    9   19 1   
    14   11   12 1   
    15   11   17 1   
    16   11   18 1   
    17   12   13 1   
    18   12   14 1   
    19   19   20 1   
    20   19   28 1   
    21   20   21 1   
    22   20   23 1   
    23   20   29 1   
    24   21   22 2   
    25   21   41 1   
    26   23   24 1   
    27   23   30 1   
    28   23   31 1   
    29   24   25 1   
    30   24   32 1   
    31   24   33 1   
    32   25   26 1   
    33   25   34 1   
    34   25   35 1   
    35   26   27 1   
    36   26   36 1   
    37   26   37 1   
    38   27   38 1   
    39   27   39 1   
    40   27   40 1   
    41   41   42 1   
    42   41   49 1   
    43   42   43 1   
    44   42   45 1   
    45   42   50 1   
    46   43   44 2   
    47   43   53 1   
    48   45   46 1   
    49   45   51 1   
    50   45   52 1   
    51   46   47 1   
    52   46   48 1   
    53   53   54 1   
    54   53   57 1   
    55   54   55 1   
    56   54   58 1   
    57   54   59 1   
    58   55   56 2   
    59   55   60 1   
    60   60   61 1   
    61   60   68 1   
    62   61   62 1   
    63   61   64 1   
    64   61   69 1   
    65   62   63 2   
    66   62   72 1   
    67   64   65 1   
    68   64   70 1   
    69   64   71 1   
    70   65   66 1   
    71   65   67 1   
    72   72   73 1   
    73   72   76 1   
    74   73   74 1   
    75   73   77 1   
    76   73   78 1   
    77   74   75 2   
    78   74   79 1   
    79   79   80 1   
    80   79   86 1   
    81   80   81 1   
    82   80   83 1   
    83   80   87 1   
    84   81   82 2   
    85   81   93 1   
    86   83   84 1   
    87   83   85 1   
    88   83   88 1   
    89   84   90 1   
    90   84   91 1   
    91   84   92 1   
    92   85   89 1   
    93   93   94 1   
    94   93  101 1   
    95   94   95 1   
    96   94   97 1   
    97   94  102 1   
    98   95   96 2   
    99   95  112 1   
   100   97   98 1   
   101   97   99 1   
   102   97  103 1   
   103   98  100 1   
   104   98  104 1   
   105   98  105 1   
   106   99  106 1   
   107   99  107 1   
   108   99  108 1   
   109  100  109 1   
   110  100  110 1   
   111  100  111 1   
   112  112  113 1   
   113  112  119 1   
   114  113  114 1   
   115  113  116 1   
   116  113  120 1   
   117  114  115 2   
   118  114  126 1   
   119  116  117 1   
   120  116  118 1   
   121  116  121 1   
   122  117  123 1   
   123  117  124 1   
   124  117  125 1   
   125  118  122 1   
   126  126  127 1   
   127  126  133 1   
   128  127  128 1   
   129  127  130 1   
   130  127  134 1   
   131  128  129 2   
   132  128  140 1   
   133  130  131 1   
   134  130  132 1   
   135  130  135 1   
   136  131  137 1   
   137  131  138 1   
   138  131  139 1   
   139  132  136 1   
   140  140  141 1   
   141  140  149 1   
   142  141  142 1   
   143  141  144 1   
   144  141  150 1   
   145  142  143 2   
   146  142  162 1   
   147  144  145 1   
   148  144  151 1   
   149  144  152 1   
   150  145  146 1   
   151  145  153 1   
   152  145  154 1   
   153  146  147 1   
   154  146  155 1   
   155  146  156 1   
   156  147  148 1   
   157  147  157 1   
   158  147  158 1   
   159  148  159 1   
   160  148  160 1   
   161  148  161 1   
   162  162  163 1   
   163  162  171 1   
   164  163  164 1   
   165  163  166 1   
   166  163  172 1   
   167  164  165 2   
   168  164  177 1   
   169  166  167 1   
   170  166  173 1   
   171  166  174 1   
   172  167  168 1   
   173  167  175 1   
   174  167  176 1   
   175  168  169 1   
   176  168  170 1   
   177  177  178 1   
   178  177  182 1   
   179  178  179 1   
   180  178  180 1   
   181  178  181 1   
   182  184  185 1   
   183  184  186 1   
   184  187  188 1   
   185  187  189 1   
@<TRIPOS>SUBSTRUCTURE
     1 MOL         1 TEMP              0 ****  ****    0 ROOT
