@<TRIPOS>MOLECULE
MOL
  189   185     1     0     0
SMALL
resp


@<TRIPOS>ATOM
      1 C1         -0.8060    0.5960    6.7810 c3        1 MOL     -0.403525
      2 C2         -0.9700    0.8750    5.2410 c         1 MOL      0.697695
      3 O1         -0.0180    1.3520    4.6370 o         1 MOL     -0.596248
      4 H1          0.2540    0.5320    7.0280 hc        1 MOL      0.104977
      5 H2         -1.2620    1.4080    7.3480 hc        1 MOL      0.104977
      6 H3         -1.2950   -0.3440    7.0360 hc        1 MOL      0.104977
      7 N1         -2.1050    0.5280    4.6660 n         1 MOL     -0.573080
      8 C3         -2.4440    0.7420    3.2440 c3        1 MOL      0.097304
      9 C4         -3.0730    2.1560    2.9200 c         1 MOL      0.535568
     10 O2         -4.2340    2.4590    3.1250 o         1 MOL     -0.557378
     11 C5         -3.4070   -0.4680    2.8440 c3        1 MOL     -0.259887
     12 C6         -3.9270   -0.3710    1.4290 c         1 MOL      0.906519
     13 O3         -4.9740   -0.9840    1.1750 o         1 MOL     -0.729388
     14 O4         -3.4000    0.3870    0.5800 o         1 MOL     -0.729388
     15 H4         -2.7530   -0.0220    5.2090 hn        1 MOL      0.329311
     16 H5         -1.5300    0.5310    2.6850 h1        1 MOL      0.029860
     17 H6         -4.2650   -0.3890    3.5150 hc        1 MOL      0.055385
     18 H7         -2.9430   -1.4370    3.0390 hc        1 MOL      0.055385
     19 N2         -2.2360    3.0580    2.4570 n         1 MOL     -0.320743
     20 C7         -2.5960    4.4860    2.2200 c3        1 MOL      0.050009
     21 C8         -3.5980    4.6810    1.1360 c         1 MOL      0.439711
     22 O5         -3.9460    5.8180    0.8860 o         1 MOL     -0.552742
     23 C9         -1.3900    5.3810    2.2980 c3        1 MOL     -0.236262
     24 C10        -0.2220    5.1980    1.3070 c3        1 MOL      0.009989
     25 C11        -0.6090    5.7210   -0.0800 c3        1 MOL     -0.080440
     26 C12         0.3590    5.2480   -1.1460 c3        1 MOL     -0.065465
     27 N3         -0.0380    3.8150   -1.4430 n4        1 MOL     -0.133768
     28 H8         -1.3440    2.7400    2.1140 hn        1 MOL      0.210107
     29 H9         -3.1530    4.6770    3.1390 h1        1 MOL      0.118694
     30 H10        -0.9250    5.0730    3.2330 hc        1 MOL      0.081689
     31 H11        -1.6200    6.4470    2.3030 hc        1 MOL      0.081689
     32 H12        -0.0270    4.1420    1.1370 hc        1 MOL      0.036169
     33 H13         0.7430    5.5910    1.6350 hc        1 MOL      0.036169
     34 H14        -0.6610    6.8110   -0.0620 hc        1 MOL      0.084699
     35 H15        -1.5780    5.3490   -0.3850 hc        1 MOL      0.084699
     36 H16         1.4120    5.3210   -0.8800 hx        1 MOL      0.054866
     37 H17         0.2090    5.8380   -2.0430 hx        1 MOL      0.054866
     38 H18        -0.0120    3.2890   -0.5890 hn        1 MOL      0.223073
     39 H19        -0.9810    3.7440   -1.8020 hn        1 MOL      0.223073
     40 H20         0.6120    3.4810   -2.1360 hn        1 MOL      0.223073
     41 N4         -4.0960    3.6760    0.3980 n         1 MOL     -0.234699
     42 C13        -5.1030    3.8010   -0.6570 c3        1 MOL      0.049191
     43 C14        -6.4070    3.0630   -0.4830 c         1 MOL      0.422633
     44 O6         -7.3440    3.3980   -1.2290 o         1 MOL     -0.522255
     45 C15        -4.5060    3.2000   -1.9410 c3        1 MOL     -0.107186
     46 C16        -2.9990    3.3540   -2.1470 c         1 MOL      0.671398
     47 O7         -2.4930    4.3630   -2.6960 o         1 MOL     -0.671779
     48 O8         -2.3300    2.5020   -1.5800 o         1 MOL     -0.671779
     49 H21        -3.6480    2.7710    0.4210 hn        1 MOL      0.181770
     50 H22        -5.3700    4.8450   -0.8050 h1        1 MOL      0.098396
     51 H23        -5.0940    3.6140   -2.7600 hc        1 MOL      0.034363
     52 H24        -4.7920    2.1460   -2.0030 hc        1 MOL      0.034363
     53 N5         -6.4600    2.1220    0.4760 n         1 MOL     -0.265489
     54 C17        -7.5460    1.1920    0.6510 c3        1 MOL     -0.188156
     55 C18        -7.6500    0.0800   -0.4380 c         1 MOL      0.496058
     56 O9         -8.6770   -0.5830   -0.4690 o         1 MOL     -0.535644
     57 H25        -5.6030    1.9920    1.0100 hn        1 MOL      0.196964
     58 H26        -8.4890    1.7350    0.7210 h1        1 MOL      0.130895
     59 H27        -7.4620    0.6570    1.6000 h1        1 MOL      0.130895
     60 N6         -6.5640   -0.1480   -1.3100 n         1 MOL     -0.228292
     61 C19        -6.7030   -1.0930   -2.4270 c3        1 MOL     -0.004379
     62 C20        -6.6450   -2.5830   -2.0290 c         1 MOL      0.439642
     63 O10        -7.1520   -3.4640   -2.7550 o         1 MOL     -0.560922
     64 C21        -5.5630   -0.7960   -3.4300 c3        1 MOL     -0.311062
     65 C22        -4.0760   -0.8090   -2.9910 c         1 MOL      0.824178
     66 O11        -3.3050   -0.0310   -3.4830 o         1 MOL     -0.784978
     67 O12        -3.7780   -1.3640   -1.9540 o         1 MOL     -0.784978
     68 H28        -5.6870    0.2910   -1.0470 hn        1 MOL      0.147822
     69 H29        -7.6930   -0.9150   -2.8360 h1        1 MOL      0.115034
     70 H30        -5.7180    0.2600   -3.6420 hc        1 MOL      0.078532
     71 H31        -5.7050   -1.4440   -4.2980 hc        1 MOL      0.078532
     72 N7         -6.1120   -2.8320   -0.8340 n         1 MOL     -0.148018
     73 C23        -6.0390   -4.1170   -0.1730 c3        1 MOL     -0.168179
     74 C24        -4.6770   -4.8020   -0.3830 c         1 MOL      0.540109
     75 O13        -4.6190   -6.0140   -0.2840 o         1 MOL     -0.541694
     76 H32        -5.6710   -2.0570   -0.3570 hn        1 MOL      0.241163
     77 H33        -6.7960   -4.7640   -0.6420 h1        1 MOL      0.100400
     78 H34        -6.2610   -4.0790    0.8930 h1        1 MOL      0.100400
     79 N8         -3.5910   -3.9580   -0.5310 n         1 MOL     -0.280379
     80 C25        -2.2190   -4.4630   -0.5730 c3        1 MOL     -0.106711
     81 C26        -1.2110   -3.4430   -0.0540 c         1 MOL      0.714922
     82 O14        -1.4910   -2.2450    0.0040 o         1 MOL     -0.650608
     83 C27        -1.6860   -4.8360   -1.9880 c3        1 MOL      0.397738
     84 C28        -2.1620   -6.2610   -2.4250 c3        1 MOL     -0.271112
     85 O15        -2.1250   -4.0550   -3.0330 oh        1 MOL     -0.655023
     86 H35        -3.8180   -2.9740   -0.5540 hn        1 MOL      0.183039
     87 H36        -2.0550   -5.3510    0.0470 h1        1 MOL      0.076346
     88 H37        -0.6020   -4.7810   -1.9860 h1        1 MOL      0.011483
     89 H38        -3.0880   -4.0700   -3.0460 ho        1 MOL      0.446946
     90 H39        -1.8910   -6.3100   -3.4820 hc        1 MOL      0.060134
     91 H40        -1.5650   -6.9880   -1.8710 hc        1 MOL      0.060134
     92 H41        -3.2300   -6.3180   -2.2130 hc        1 MOL      0.060134
     93 N9         -0.1720   -4.0080    0.4690 n         1 MOL     -0.612133
     94 C29         0.9980   -3.2720    1.0490 c3        1 MOL      0.070243
     95 C30         2.1890   -3.3230    0.2080 c         1 MOL      0.529600
     96 O16         2.8630   -4.3460    0.0960 o         1 MOL     -0.553173
     97 C31         1.2520   -3.6880    2.5170 c3        1 MOL      0.024934
     98 C32        -0.0110   -3.2780    3.3460 c3        1 MOL      0.159815
     99 C33         2.4860   -3.0930    3.1860 c3        1 MOL     -0.196195
    100 C34         0.0210   -3.8060    4.8410 c3        1 MOL     -0.421611
    101 H42         0.0280   -4.9910    0.3070 hn        1 MOL      0.327782
    102 H43         0.8020   -2.2010    1.0280 h1        1 MOL     -0.015259
    103 H44         1.4380   -4.7610    2.4510 hc        1 MOL      0.025616
    104 H45        -0.8910   -3.7640    2.9140 hc        1 MOL      0.017354
    105 H46        -0.0630   -2.1890    3.3780 hc        1 MOL      0.017354
    106 H47         2.2870   -2.0670    3.4950 hc        1 MOL      0.051720
    107 H48         2.8740   -3.6440    4.0430 hc        1 MOL      0.051720
    108 H49         3.2550   -2.9830    2.4070 hc        1 MOL      0.051720
    109 H50         0.1840   -4.8750    4.9450 hc        1 MOL      0.104019
    110 H51         0.8910   -3.3180    5.2860 hc        1 MOL      0.104019
    111 H52        -0.9460   -3.5150    5.2630 hc        1 MOL      0.104019
    112 N10         2.4650   -2.2830   -0.5370 n         1 MOL     -0.280505
    113 C35         3.7030   -2.2040   -1.3340 c3        1 MOL     -0.068572
    114 C36         4.9560   -2.1870   -0.4360 c         1 MOL      0.181675
    115 O17         4.8980   -2.0110    0.7520 o         1 MOL     -0.162368
    116 C37         3.7320   -0.8480   -2.0900 c3        1 MOL      0.229318
    117 C38         2.8080   -0.9710   -3.2850 c3        1 MOL     -0.372264
    118 O18         3.3650    0.2380   -1.3210 oh        1 MOL     -0.503464
    119 H53         1.9300   -1.4390   -0.4780 hn        1 MOL      0.179582
    120 H54         3.8620   -3.0080   -2.0580 h1        1 MOL      0.115055
    121 H55         4.7210   -0.6690   -2.5280 h1        1 MOL      0.044813
    122 H56         2.4070    0.3010   -1.2410 ho        1 MOL      0.338836
    123 H57         3.2050   -0.3050   -4.0590 hc        1 MOL      0.099143
    124 H58         2.7400   -1.9500   -3.7550 hc        1 MOL      0.099143
    125 H59         1.8430   -0.5930   -2.9690 hc        1 MOL      0.099143
    126 N11         6.1570   -2.2810   -1.0030 n         1 MOL     -0.163897
    127 C39         7.4440   -1.9830   -0.4030 c3        1 MOL     -0.179878
    128 C40         7.5320   -0.6730    0.3350 c         1 MOL      0.258439
    129 O19         8.1010   -0.5340    1.4550 o         1 MOL     -0.438895
    130 C41         8.5530   -2.0950   -1.4330 c3        1 MOL      0.441819
    131 C42         8.9490   -3.4620   -1.8280 c3        1 MOL     -0.433272
    132 O20         8.1760   -1.2330   -2.4660 oh        1 MOL     -0.663746
    133 H60         6.1830   -2.7040   -1.9180 hn        1 MOL      0.232837
    134 H61         7.6660   -2.7350    0.3550 h1        1 MOL      0.126980
    135 H62         9.4170   -1.6230   -0.9600 h1        1 MOL      0.005738
    136 H63         9.0030   -1.0310   -2.9190 ho        1 MOL      0.395014
    137 H64         9.2420   -4.0110   -0.9470 hc        1 MOL      0.123711
    138 H65         8.0230   -3.8670   -2.2330 hc        1 MOL      0.123711
    139 H66         9.7290   -3.3510   -2.5840 hc        1 MOL      0.123711
    140 N12         6.9940    0.3560   -0.3360 n         1 MOL     -0.084716
    141 C43         6.7460    1.7240    0.1110 c3        1 MOL     -0.190091
    142 C44         5.9020    1.7560    1.3260 c         1 MOL      0.436591
    143 O21         6.0060    2.6490    2.1590 o         1 MOL     -0.518800
    144 C45         6.2350    2.6220   -1.0690 c3        1 MOL      0.043543
    145 C46         7.2240    2.6350   -2.2780 c3        1 MOL     -0.020998
    146 C47         6.9100    3.5830   -3.3920 c3        1 MOL     -0.017540
    147 C48         7.9880    3.5840   -4.5120 c3        1 MOL      0.184559
    148 N13         7.7540    4.6700   -5.5080 n4        1 MOL     -0.496463
    149 H67         6.7130    0.1140   -1.2720 hn        1 MOL      0.204765
    150 H68         7.7310    2.0810    0.4220 h1        1 MOL      0.139083
    151 H69         6.2150    3.6680   -0.7690 hc        1 MOL      0.034342
    152 H70         5.2330    2.4160   -1.4520 hc        1 MOL      0.034342
    153 H71         7.4130    1.6380   -2.6700 hc        1 MOL      0.002106
    154 H72         8.1910    2.7760   -1.8110 hc        1 MOL      0.002106
    155 H73         6.7210    4.6040   -3.0680 hc        1 MOL      0.025769
    156 H74         5.9850    3.2350   -3.8410 hc        1 MOL      0.025769
    157 H75         8.0040    2.6820   -5.1250 hx        1 MOL      0.047705
    158 H76         9.0050    3.7100   -4.1360 hx        1 MOL      0.047705
    159 H77         6.7970    4.6520   -5.8270 hn        1 MOL      0.363644
    160 H78         8.1300    5.5240   -5.1120 hn        1 MOL      0.363644
    161 H79         8.2600    4.4890   -6.3580 hn        1 MOL      0.363644
    162 N14         4.8800    0.8800    1.4310 n         1 MOL      0.014805
    163 C49         3.9130    0.8890    2.5160 c3        1 MOL     -0.208819
    164 C50         4.3800   -0.0450    3.6190 c         1 MOL      0.453063
    165 O22         4.0190    0.0830    4.7920 o         1 MOL     -0.590059
    166 C51         2.5030    0.4000    1.9260 c3        1 MOL      0.107672
    167 C52         1.9230    1.6270    1.1160 c3        1 MOL      0.085863
    168 C53         0.7580    1.0940    0.2790 c         1 MOL      0.461864
    169 O23         0.8640    0.1400   -0.4840 o         1 MOL     -0.596931
    170 O24        -0.3320    1.7270    0.2940 o         1 MOL     -0.596931
    171 H80         4.8100    0.1210    0.7700 hn        1 MOL     -0.127263
    172 H81         3.8090    1.8880    2.9490 h1        1 MOL      0.148331
    173 H82         1.7290    0.1260    2.6380 hc        1 MOL      0.086947
    174 H83         2.5970   -0.4370    1.2310 hc        1 MOL      0.086947
    175 H84         2.6480    1.9390    0.3620 hc        1 MOL     -0.042196
    176 H85         1.7660    2.5200    1.7210 hc        1 MOL     -0.042196
    177 N15         5.1160   -1.0250    3.3300 n         1 MOL      0.006589
    178 C54         5.8990   -1.8620    4.2530 c3        1 MOL     -0.183908
    179 H86         6.9600   -1.6360    4.1380 h1        1 MOL      0.081703
    180 H87         5.5940   -1.6560    5.2790 h1        1 MOL      0.081703
    181 H88         5.7260   -2.9140    4.0260 h1        1 MOL      0.081703
    182 H89         5.1370   -1.2020    2.3320 hn        1 MOL      0.033038
    183 Ca1        -1.7220    0.1170   -1.3580 Ca        1 MOL      1.702271
    184 O25        -0.2720    1.2500   -3.6630 oh        1 MOL     -0.851503
    185 H90        -0.8130    2.0020   -3.9050 ho        1 MOL      0.412059
    186 H91         0.3000    1.1100   -4.4200 ho        1 MOL      0.412059
    187 O26        -0.7550   -1.8010   -2.9920 oh        1 MOL     -0.851503
    188 H92        -1.0910   -2.6980   -3.0200 ho        1 MOL      0.412059
    189 H93        -0.6570   -1.5550   -3.9090 ho        1 MOL      0.412059
@<TRIPOS>BOND
     1    1    2 1   
     2    1    4 1   
     3    1    5 1   
     4    1    6 1   
     5    2    3 2   
     6    2    7 1   
     7    7    8 1   
     8    7   15 1   
     9    8    9 1   
    10    8   11 1   
    11    8   16 1   
    12    9   10 2   
    13    9   19 1   
    14   11   12 1   
    15   11   17 1   
    16   11   18 1   
    17   12   13 1   
    18   12   14 1   
    19   19   20 1   
    20   19   28 1   
    21   20   21 1   
    22   20   23 1   
    23   20   29 1   
    24   21   22 2   
    25   21   41 1   
    26   23   24 1   
    27   23   30 1   
    28   23   31 1   
    29   24   25 1   
    30   24   32 1   
    31   24   33 1   
    32   25   26 1   
    33   25   34 1   
    34   25   35 1   
    35   26   27 1   
    36   26   36 1   
    37   26   37 1   
    38   27   38 1   
    39   27   39 1   
    40   27   40 1   
    41   41   42 1   
    42   41   49 1   
    43   42   43 1   
    44   42   45 1   
    45   42   50 1   
    46   43   44 2   
    47   43   53 1   
    48   45   46 1   
    49   45   51 1   
    50   45   52 1   
    51   46   47 1   
    52   46   48 1   
    53   53   54 1   
    54   53   57 1   
    55   54   55 1   
    56   54   58 1   
    57   54   59 1   
    58   55   56 2   
    59   55   60 1   
    60   60   61 1   
    61   60   68 1   
    62   61   62 1   
    63   61   64 1   
    64   61   69 1   
    65   62   63 2   
    66   62   72 1   
    67   64   65 1   
    68   64   70 1   
    69   64   71 1   
    70   65   66 1   
    71   65   67 1   
    72   72   73 1   
    73   72   76 1   
    74   73   74 1   
    75   73   77 1   
    76   73   78 1   
    77   74   75 2   
    78   74   79 1   
    79   79   80 1   
    80   79   86 1   
    81   80   81 1   
    82   80   83 1   
    83   80   87 1   
    84   81   82 2   
    85   81   93 1   
    86   83   84 1   
    87   83   85 1   
    88   83   88 1   
    89   84   90 1   
    90   84   91 1   
    91   84   92 1   
    92   85   89 1   
    93   93   94 1   
    94   93  101 1   
    95   94   95 1   
    96   94   97 1   
    97   94  102 1   
    98   95   96 2   
    99   95  112 1   
   100   97   98 1   
   101   97   99 1   
   102   97  103 1   
   103   98  100 1   
   104   98  104 1   
   105   98  105 1   
   106   99  106 1   
   107   99  107 1   
   108   99  108 1   
   109  100  109 1   
   110  100  110 1   
   111  100  111 1   
   112  112  113 1   
   113  112  119 1   
   114  113  114 1   
   115  113  116 1   
   116  113  120 1   
   117  114  115 2   
   118  114  126 1   
   119  116  117 1   
   120  116  118 1   
   121  116  121 1   
   122  117  123 1   
   123  117  124 1   
   124  117  125 1   
   125  118  122 1   
   126  126  127 1   
   127  126  133 1   
   128  127  128 1   
   129  127  130 1   
   130  127  134 1   
   131  128  129 2   
   132  128  140 1   
   133  130  131 1   
   134  130  132 1   
   135  130  135 1   
   136  131  137 1   
   137  131  138 1   
   138  131  139 1   
   139  132  136 1   
   140  140  141 1   
   141  140  149 1   
   142  141  142 1   
   143  141  144 1   
   144  141  150 1   
   145  142  143 2   
   146  142  162 1   
   147  144  145 1   
   148  144  151 1   
   149  144  152 1   
   150  145  146 1   
   151  145  153 1   
   152  145  154 1   
   153  146  147 1   
   154  146  155 1   
   155  146  156 1   
   156  147  148 1   
   157  147  157 1   
   158  147  158 1   
   159  148  159 1   
   160  148  160 1   
   161  148  161 1   
   162  162  163 1   
   163  162  171 1   
   164  163  164 1   
   165  163  166 1   
   166  163  172 1   
   167  164  165 2   
   168  164  177 1   
   169  166  167 1   
   170  166  173 1   
   171  166  174 1   
   172  167  168 1   
   173  167  175 1   
   174  167  176 1   
   175  168  169 1   
   176  168  170 1   
   177  177  178 1   
   178  177  182 1   
   179  178  179 1   
   180  178  180 1   
   181  178  181 1   
   182  184  185 1   
   183  184  186 1   
   184  187  188 1   
   185  187  189 1   
@<TRIPOS>SUBSTRUCTURE
     1 MOL         1 TEMP              0 ****  ****    0 ROOT
