@<TRIPOS>MOLECULE
MOL
  189   185     1     0     0
SMALL
resp


@<TRIPOS>ATOM
      1 C1          0.2930    1.5680    5.9090 c3        1 MOL     -0.358221
      2 C2         -0.1930    1.7920    4.5340 c         1 MOL      0.737278
      3 O1          0.5340    2.3300    3.7150 o         1 MOL     -0.627260
      4 H1          0.7730    0.5920    5.9680 hc        1 MOL      0.091467
      5 H2          1.0130    2.3430    6.1710 hc        1 MOL      0.091467
      6 H3         -0.5480    1.6020    6.6020 hc        1 MOL      0.091467
      7 N1         -1.3980    1.2610    4.2560 n         1 MOL     -0.537760
      8 C3         -1.9580    1.1030    2.8820 c3        1 MOL      0.082273
      9 C4         -2.3160    2.4990    2.4100 c         1 MOL      0.471537
     10 O2         -3.3790    3.0350    2.6890 o         1 MOL     -0.503841
     11 C5         -3.1960    0.1350    2.9190 c3        1 MOL     -0.404946
     12 C6         -4.0370   -0.0340    1.5850 c         1 MOL      0.767429
     13 O3         -3.4870    0.4060    0.5310 o         1 MOL     -0.636678
     14 O4         -5.1130   -0.6350    1.6450 o         1 MOL     -0.636678
     15 H4         -1.8390    0.7490    5.0060 hn        1 MOL      0.315417
     16 H5         -1.2460    0.6940    2.1550 h1        1 MOL      0.041743
     17 H6         -3.8310    0.5900    3.6770 hc        1 MOL      0.102660
     18 H7         -2.8910   -0.8830    3.1660 hc        1 MOL      0.102660
     19 N2         -1.4230    3.1840    1.6980 n         1 MOL     -0.183594
     20 C7         -1.5410    4.6180    1.3080 c3        1 MOL     -0.231837
     21 C8         -2.6190    5.0340    0.3780 c         1 MOL      0.578403
     22 O5         -2.9950    6.2010    0.4380 o         1 MOL     -0.590249
     23 C9         -0.1620    4.9910    0.8170 c3        1 MOL      0.120038
     24 C10         0.0670    6.5430    0.7170 c3        1 MOL     -0.088405
     25 C11         1.5810    6.8300    0.6520 c3        1 MOL     -0.048485
     26 C12         1.8990    8.2470    0.1730 c3        1 MOL      0.124734
     27 N3          3.3150    8.6530    0.3530 n4        1 MOL     -0.418140
     28 H8         -0.6100    2.6920    1.3720 hn        1 MOL      0.175434
     29 H9         -1.6170    5.1020    2.2840 h1        1 MOL      0.130230
     30 H10        -0.0400    4.6320   -0.2010 hc        1 MOL      0.042019
     31 H11         0.6920    4.5320    1.3260 hc        1 MOL      0.042019
     32 H12        -0.5090    7.0120    1.5150 hc        1 MOL      0.039003
     33 H13        -0.3510    6.8640   -0.2320 hc        1 MOL      0.039003
     34 H14         1.9450    6.1440   -0.1080 hc        1 MOL      0.032604
     35 H15         2.0450    6.6510    1.6220 hc        1 MOL      0.032604
     36 H16         1.3870    8.9170    0.8730 hx        1 MOL      0.063116
     37 H17         1.4940    8.4640   -0.8150 hx        1 MOL      0.063116
     38 H18         3.4800    8.8070    1.3300 hn        1 MOL      0.336512
     39 H19         3.9390    7.9210    0.0390 hn        1 MOL      0.336512
     40 H20         3.5270    9.5170   -0.1210 hn        1 MOL      0.336512
     41 N4         -3.0340    4.1080   -0.4800 n         1 MOL     -0.283852
     42 C13        -4.1670    4.2730   -1.4130 c3        1 MOL      0.026141
     43 C14        -5.3560    3.4040   -1.0960 c         1 MOL      0.396559
     44 O6         -6.3390    3.4710   -1.8080 o         1 MOL     -0.508505
     45 C15        -3.5840    4.1590   -2.7920 c3        1 MOL     -0.224591
     46 C16        -2.8260    2.8740   -3.0430 c         1 MOL      0.850572
     47 O7         -2.2010    2.7890   -4.1350 o         1 MOL     -0.749973
     48 O8         -2.8650    1.9440   -2.2700 o         1 MOL     -0.749973
     49 H21        -2.6270    3.1860   -0.4170 hn        1 MOL      0.136595
     50 H22        -4.4860    5.3170   -1.3580 h1        1 MOL      0.097555
     51 H23        -2.9070    4.9590   -3.1050 hc        1 MOL      0.055414
     52 H24        -4.4460    4.1690   -3.4590 hc        1 MOL      0.055414
     53 N5         -5.2810    2.6590    0.0330 n         1 MOL     -0.071533
     54 C17        -6.4520    2.0480    0.6280 c3        1 MOL     -0.196039
     55 C18        -7.1460    0.9860   -0.2270 c         1 MOL      0.549864
     56 O9         -8.3460    0.7730   -0.1700 o         1 MOL     -0.578384
     57 H25        -4.4600    2.5640    0.6060 hn        1 MOL      0.083884
     58 H26        -7.1760    2.8460    0.8060 h1        1 MOL      0.095069
     59 H27        -6.2350    1.5340    1.5630 h1        1 MOL      0.095069
     60 N6         -6.4010    0.4520   -1.2320 n         1 MOL     -0.232826
     61 C19        -6.9800   -0.6100   -2.1270 c3        1 MOL     -0.102002
     62 C20        -7.3910   -1.9180   -1.3730 c         1 MOL      0.511627
     63 O10        -8.0240   -2.7130   -2.0120 o         1 MOL     -0.555054
     64 C21        -6.1590   -0.8490   -3.4090 c3        1 MOL     -0.241233
     65 C22        -4.6830   -1.1120   -3.1340 c         1 MOL      0.746966
     66 O11        -4.0030   -1.0330   -4.1440 o         1 MOL     -0.660184
     67 O12        -4.2080   -1.3840   -2.0060 o         1 MOL     -0.660184
     68 H28        -5.3960    0.4980   -1.2480 hn        1 MOL      0.194329
     69 H29        -7.9570   -0.2530   -2.4230 h1        1 MOL      0.114672
     70 H30        -6.3840    0.0470   -3.9730 hc        1 MOL      0.092035
     71 H31        -6.5230   -1.6780   -4.0130 hc        1 MOL      0.092035
     72 N7         -6.9520   -2.1110   -0.1130 n         1 MOL     -0.221682
     73 C23        -7.1420   -3.2850    0.6690 c3        1 MOL     -0.148477
     74 C24        -5.8900   -4.2460    0.7370 c         1 MOL      0.468049
     75 O13        -6.0440   -5.3630    1.2680 o         1 MOL     -0.547967
     76 H32        -6.3630   -1.4090    0.3240 hn        1 MOL      0.227153
     77 H33        -7.9770   -3.9030    0.3530 h1        1 MOL      0.101580
     78 H34        -7.3710   -2.9610    1.6880 h1        1 MOL      0.101580
     79 N8         -4.6550   -3.7450    0.3860 n         1 MOL     -0.047922
     80 C25        -3.3390   -4.4120    0.4980 c3        1 MOL     -0.273604
     81 C26        -2.0750   -3.5250    0.6490 c         1 MOL      0.822024
     82 O14        -2.1800   -2.3090    0.3940 o         1 MOL     -0.671139
     83 C27        -2.9880   -5.2460   -0.8060 c3        1 MOL      0.403406
     84 C28        -3.5870   -6.6170   -0.8690 c3        1 MOL     -0.460178
     85 O15        -3.2760   -4.4830   -2.0130 oh        1 MOL     -0.613699
     86 H35        -4.6490   -2.8230   -0.0250 hn        1 MOL      0.020644
     87 H36        -3.3660   -5.0610    1.3750 h1        1 MOL      0.097107
     88 H37        -1.9230   -5.4440   -0.9520 h1        1 MOL      0.049436
     89 H38        -4.2380   -4.4410   -2.0010 ho        1 MOL      0.398326
     90 H39        -3.0650   -7.1320   -1.6680 hc        1 MOL      0.116835
     91 H40        -3.4670   -7.1420    0.0800 hc        1 MOL      0.116835
     92 H41        -4.6570   -6.5100   -1.0650 hc        1 MOL      0.116835
     93 N9         -0.9230   -4.0770    1.0000 n         1 MOL     -0.689889
     94 C29         0.2410   -3.2520    1.3970 c3        1 MOL      0.076753
     95 C30         1.5320   -3.6550    0.6980 c         1 MOL      0.524790
     96 O16         1.9670   -4.8300    0.7010 o         1 MOL     -0.589730
     97 C31         0.3130   -3.3010    2.9760 c3        1 MOL      0.118388
     98 C32        -0.8790   -2.8580    3.8070 c3        1 MOL      0.191795
     99 C33         1.4450   -2.3340    3.3430 c3        1 MOL     -0.493019
    100 C34        -0.9750   -3.4770    5.1740 c3        1 MOL     -0.354307
    101 H42        -0.8950   -5.0670    1.1990 hn        1 MOL      0.307428
    102 H43         0.1320   -2.2100    1.0720 h1        1 MOL      0.109975
    103 H44         0.5910   -4.3170    3.2850 hc        1 MOL      0.028683
    104 H45        -1.8500   -3.0800    3.3580 hc        1 MOL      0.009353
    105 H46        -0.7710   -1.7830    3.9110 hc        1 MOL      0.009353
    106 H47         1.1710   -1.3090    3.0900 hc        1 MOL      0.092838
    107 H48         1.4980   -2.2760    4.4330 hc        1 MOL      0.092838
    108 H49         2.4180   -2.5750    2.9080 hc        1 MOL      0.092838
    109 H50        -1.8430   -3.0180    5.6480 hc        1 MOL      0.080632
    110 H51        -0.9990   -4.5650    5.1570 hc        1 MOL      0.080632
    111 H52        -0.0550   -3.1240    5.6430 hc        1 MOL      0.080632
    112 N10         2.2190   -2.7090    0.1020 n         1 MOL     -0.153925
    113 C35         3.4130   -2.9330   -0.6780 c3        1 MOL      0.033416
    114 C36         4.6260   -2.7200    0.1500 c         1 MOL      0.209120
    115 O17         4.5440   -2.0210    1.1760 o         1 MOL     -0.204518
    116 C37         3.4660   -1.9990   -1.8850 c3        1 MOL      0.026768
    117 C38         2.3120   -2.0440   -2.8440 c3        1 MOL     -0.357617
    118 O18         3.4770   -0.6690   -1.4280 oh        1 MOL     -0.244092
    119 H53         1.7590   -1.8140    0.0020 hn        1 MOL      0.151450
    120 H54         3.4290   -3.9460   -1.0620 h1        1 MOL      0.078623
    121 H55         4.3790   -2.2910   -2.3980 h1        1 MOL      0.005086
    122 H56         3.1570   -0.2060   -2.2110 ho        1 MOL      0.328723
    123 H57         2.2530   -2.9700   -3.4210 hc        1 MOL      0.113109
    124 H58         1.3180   -1.8670   -2.4340 hc        1 MOL      0.113109
    125 H59         2.3990   -1.2060   -3.5330 hc        1 MOL      0.113109
    126 N11         5.7900   -3.1960   -0.3400 n         1 MOL     -0.100881
    127 C39         7.1010   -2.9150    0.2340 c3        1 MOL     -0.457330
    128 C40         7.3290   -1.4580    0.3350 c         1 MOL      0.561955
    129 O19         7.9720   -0.9880    1.2890 o         1 MOL     -0.509290
    130 C41         8.2330   -3.6420   -0.5840 c3        1 MOL      0.353116
    131 C42         8.2440   -5.1820   -0.3570 c3        1 MOL     -0.317158
    132 O20         8.2520   -3.3560   -1.9910 oh        1 MOL     -0.619829
    133 H60         5.8030   -3.7830   -1.1620 hn        1 MOL      0.218330
    134 H61         7.1520   -3.3410    1.2390 h1        1 MOL      0.194540
    135 H62         9.1280   -3.2020   -0.1470 h1        1 MOL      0.083038
    136 H63         7.5120   -3.8320   -2.3690 ho        1 MOL      0.389876
    137 H64         8.9170   -5.6880   -1.0510 hc        1 MOL      0.093350
    138 H65         8.6270   -5.5020    0.6170 hc        1 MOL      0.093350
    139 H66         7.2120   -5.4750   -0.5420 hc        1 MOL      0.093350
    140 N12         6.8560   -0.6470   -0.6070 n         1 MOL     -0.249701
    141 C43         6.9640    0.8250   -0.5680 c3        1 MOL     -0.047121
    142 C44         6.2580    1.4870    0.5500 c         1 MOL      0.351867
    143 O21         6.7270    2.3880    1.2580 o         1 MOL     -0.517564
    144 C45         6.6610    1.4010   -1.9510 c3        1 MOL     -0.125938
    145 C46         7.4860    0.8190   -3.1440 c3        1 MOL     -0.029895
    146 C47         6.8040    1.3510   -4.4500 c3        1 MOL      0.144954
    147 C48         7.7330    1.0770   -5.6550 c3        1 MOL     -0.065172
    148 N13         8.9820    1.8420   -5.7370 n4        1 MOL     -0.247248
    149 H67         6.1560   -1.0140   -1.2400 hn        1 MOL      0.165571
    150 H68         8.0180    1.0140   -0.3360 h1        1 MOL      0.101776
    151 H69         6.8380    2.4770   -1.8700 hc        1 MOL      0.046433
    152 H70         5.5870    1.3690   -2.1420 hc        1 MOL      0.046433
    153 H71         7.4160   -0.2650   -3.2300 hc        1 MOL      0.027798
    154 H72         8.5250    1.1270   -3.0530 hc        1 MOL      0.027798
    155 H73         6.6950    2.4320   -4.4300 hc        1 MOL     -0.001512
    156 H74         5.8140    0.9660   -4.7010 hc        1 MOL     -0.001512
    157 H75         7.2250    1.4720   -6.5340 hx        1 MOL      0.083355
    158 H76         7.8650   -0.0030   -5.6950 hx        1 MOL      0.083355
    159 H77         8.8730    2.8300   -5.5650 hn        1 MOL      0.263152
    160 H78         9.5740    1.4290   -5.0270 hn        1 MOL      0.263152
    161 H79         9.3330    1.6220   -6.6620 hn        1 MOL      0.263152
    162 N14         5.0840    0.9470    0.7890 n         1 MOL      0.078329
    163 C49         4.0780    1.4560    1.7670 c3        1 MOL     -0.193679
    164 C50         4.4660    0.9970    3.1250 c         1 MOL      0.487842
    165 O22         4.3530    1.8390    4.0720 o         1 MOL     -0.543746
    166 C51         2.6910    0.9090    1.3890 c3        1 MOL      0.182077
    167 C52         2.0620    1.5430    0.2000 c3        1 MOL     -0.000457
    168 C53         0.6990    0.9190   -0.3040 c         1 MOL      0.613473
    169 O23        -0.2240    1.6040   -0.7830 o         1 MOL     -0.718417
    170 O24         0.5190   -0.3430   -0.2980 o         1 MOL     -0.718417
    171 H80         4.8000    0.2010    0.1770 hn        1 MOL     -0.086374
    172 H81         4.0820    2.5380    1.8110 h1        1 MOL      0.082634
    173 H82         2.0800    1.0630    2.2840 hc        1 MOL      0.021357
    174 H83         2.7250   -0.1790    1.3270 hc        1 MOL      0.021357
    175 H84         2.7060    1.5560   -0.6790 hc        1 MOL     -0.050494
    176 H85         1.8900    2.6040    0.3800 hc        1 MOL     -0.050494
    177 N15         5.0000   -0.2440    3.3140 n         1 MOL     -0.127723
    178 C54         5.6500   -0.6720    4.5640 c3        1 MOL     -0.348395
    179 H86         5.6500   -1.7610    4.6180 h1        1 MOL      0.128794
    180 H87         6.6760   -0.3070    4.5840 h1        1 MOL      0.128794
    181 H88         5.1020   -0.2670    5.4150 h1        1 MOL      0.128794
    182 H89         4.9520   -0.8680    2.5250 hn        1 MOL      0.121338
    183 Ca1        -2.0120   -0.2660   -1.4240 Ca        1 MOL      1.734898
    184 O25        -0.8910    0.4200   -3.6760 oh        1 MOL     -0.836376
    185 H90        -0.5550    0.1830   -4.5450 ho        1 MOL      0.395899
    186 H91        -1.0390    1.3710   -3.7330 ho        1 MOL      0.395899
    187 O26        -1.4090   -2.5340   -2.8680 oh        1 MOL     -0.836376
    188 H92        -1.5890   -2.3130   -3.7810 ho        1 MOL      0.395899
    189 H93        -1.9260   -3.3240   -2.7060 ho        1 MOL      0.395899
@<TRIPOS>BOND
     1    1    2 1   
     2    1    4 1   
     3    1    5 1   
     4    1    6 1   
     5    2    3 2   
     6    2    7 1   
     7    7    8 1   
     8    7   15 1   
     9    8    9 1   
    10    8   11 1   
    11    8   16 1   
    12    9   10 2   
    13    9   19 1   
    14   11   12 1   
    15   11   17 1   
    16   11   18 1   
    17   12   13 1   
    18   12   14 1   
    19   19   20 1   
    20   19   28 1   
    21   20   21 1   
    22   20   23 1   
    23   20   29 1   
    24   21   22 2   
    25   21   41 1   
    26   23   24 1   
    27   23   30 1   
    28   23   31 1   
    29   24   25 1   
    30   24   32 1   
    31   24   33 1   
    32   25   26 1   
    33   25   34 1   
    34   25   35 1   
    35   26   27 1   
    36   26   36 1   
    37   26   37 1   
    38   27   38 1   
    39   27   39 1   
    40   27   40 1   
    41   41   42 1   
    42   41   49 1   
    43   42   43 1   
    44   42   45 1   
    45   42   50 1   
    46   43   44 2   
    47   43   53 1   
    48   45   46 1   
    49   45   51 1   
    50   45   52 1   
    51   46   47 1   
    52   46   48 1   
    53   53   54 1   
    54   53   57 1   
    55   54   55 1   
    56   54   58 1   
    57   54   59 1   
    58   55   56 2   
    59   55   60 1   
    60   60   61 1   
    61   60   68 1   
    62   61   62 1   
    63   61   64 1   
    64   61   69 1   
    65   62   63 2   
    66   62   72 1   
    67   64   65 1   
    68   64   70 1   
    69   64   71 1   
    70   65   66 1   
    71   65   67 1   
    72   72   73 1   
    73   72   76 1   
    74   73   74 1   
    75   73   77 1   
    76   73   78 1   
    77   74   75 2   
    78   74   79 1   
    79   79   80 1   
    80   79   86 1   
    81   80   81 1   
    82   80   83 1   
    83   80   87 1   
    84   81   82 2   
    85   81   93 1   
    86   83   84 1   
    87   83   85 1   
    88   83   88 1   
    89   84   90 1   
    90   84   91 1   
    91   84   92 1   
    92   85   89 1   
    93   93   94 1   
    94   93  101 1   
    95   94   95 1   
    96   94   97 1   
    97   94  102 1   
    98   95   96 2   
    99   95  112 1   
   100   97   98 1   
   101   97   99 1   
   102   97  103 1   
   103   98  100 1   
   104   98  104 1   
   105   98  105 1   
   106   99  106 1   
   107   99  107 1   
   108   99  108 1   
   109  100  109 1   
   110  100  110 1   
   111  100  111 1   
   112  112  113 1   
   113  112  119 1   
   114  113  114 1   
   115  113  116 1   
   116  113  120 1   
   117  114  115 2   
   118  114  126 1   
   119  116  117 1   
   120  116  118 1   
   121  116  121 1   
   122  117  123 1   
   123  117  124 1   
   124  117  125 1   
   125  118  122 1   
   126  126  127 1   
   127  126  133 1   
   128  127  128 1   
   129  127  130 1   
   130  127  134 1   
   131  128  129 2   
   132  128  140 1   
   133  130  131 1   
   134  130  132 1   
   135  130  135 1   
   136  131  137 1   
   137  131  138 1   
   138  131  139 1   
   139  132  136 1   
   140  140  141 1   
   141  140  149 1   
   142  141  142 1   
   143  141  144 1   
   144  141  150 1   
   145  142  143 2   
   146  142  162 1   
   147  144  145 1   
   148  144  151 1   
   149  144  152 1   
   150  145  146 1   
   151  145  153 1   
   152  145  154 1   
   153  146  147 1   
   154  146  155 1   
   155  146  156 1   
   156  147  148 1   
   157  147  157 1   
   158  147  158 1   
   159  148  159 1   
   160  148  160 1   
   161  148  161 1   
   162  162  163 1   
   163  162  171 1   
   164  163  164 1   
   165  163  166 1   
   166  163  172 1   
   167  164  165 2   
   168  164  177 1   
   169  166  167 1   
   170  166  173 1   
   171  166  174 1   
   172  167  168 1   
   173  167  175 1   
   174  167  176 1   
   175  168  169 1   
   176  168  170 1   
   177  177  178 1   
   178  177  182 1   
   179  178  179 1   
   180  178  180 1   
   181  178  181 1   
   182  184  185 1   
   183  184  186 1   
   184  187  188 1   
   185  187  189 1   
@<TRIPOS>SUBSTRUCTURE
     1 MOL         1 TEMP              0 ****  ****    0 ROOT
