@<TRIPOS>MOLECULE
MOL
  182   178     1     0     0
SMALL
resp


@<TRIPOS>ATOM
      1 C1          1.7580    2.0780    6.3130 c3        1 MOL     -0.229187
      2 C2          1.3310    1.6950    4.8600 c         1 MOL      0.706584
      3 O1          2.1940    1.3800    4.0120 o         1 MOL     -0.607943
      4 H1          1.2720    3.0100    6.5990 hc        1 MOL      0.059419
      5 H2          1.4590    1.2860    7.0000 hc        1 MOL      0.059419
      6 H3          2.8390    2.2050    6.3530 hc        1 MOL      0.059419
      7 N1          0.0260    1.7140    4.5780 n         1 MOL     -0.548500
      8 C3         -0.4930    1.8900    3.1790 c3        1 MOL      0.024896
      9 C4         -0.4890    3.3300    2.7040 c         1 MOL      0.568151
     10 O2         -1.2490    4.0920    3.2710 o         1 MOL     -0.525418
     11 C5         -1.8680    1.1870    3.2200 c3        1 MOL     -0.148215
     12 C6         -2.6730    1.1070    1.9110 c         1 MOL      0.936823
     13 O3         -3.7600    0.5080    1.9640 o         1 MOL     -0.792695
     14 O4         -2.2590    1.6980    0.9120 o         1 MOL     -0.792695
     15 H4         -0.6790    1.7920    5.3000 hn        1 MOL      0.310842
     16 H5          0.1700    1.2830    2.5570 h1        1 MOL     -0.051054
     17 H6         -2.4710    1.7500    3.9390 hc        1 MOL      0.035840
     18 H7         -1.8650    0.1280    3.4970 hc        1 MOL      0.035840
     19 N2          0.2150    3.5960    1.5860 n         1 MOL     -0.341160
     20 C7          0.5140    4.9270    1.1250 c3        1 MOL     -0.047491
     21 C8         -0.7100    5.6030    0.5270 c         1 MOL      0.427504
     22 O5         -0.8520    6.8240    0.6440 o         1 MOL     -0.576777
     23 C9          1.6590    4.8670    0.0660 c3        1 MOL     -0.091528
     24 C10         1.7210    6.0430   -0.9230 c3        1 MOL      0.034478
     25 C11         2.9630    5.9050   -1.8170 c3        1 MOL     -0.195042
     26 C12         3.0940    7.2750   -2.5150 c3        1 MOL      0.271088
     27 N3          4.0930    7.2870   -3.6320 n4        1 MOL     -0.594096
     28 H8          0.6920    2.8500    1.1040 hn        1 MOL      0.293196
     29 H9          0.9340    5.5190    1.9320 h1        1 MOL      0.097799
     30 H10         1.4820    3.9890   -0.5640 hc        1 MOL      0.084146
     31 H11         2.6250    4.8910    0.5670 hc        1 MOL      0.084146
     32 H12         1.9130    6.9860   -0.4100 hc        1 MOL      0.018256
     33 H13         0.7580    6.1270   -1.4290 hc        1 MOL      0.018256
     34 H14         2.7820    5.1290   -2.5620 hc        1 MOL      0.067096
     35 H15         3.8960    5.7710   -1.2540 hc        1 MOL      0.067096
     36 H16         3.3350    8.0530   -1.7920 hx        1 MOL      0.040176
     37 H17         2.1210    7.5840   -2.9000 hx        1 MOL      0.040176
     38 H18         4.0820    8.1150   -4.1940 hn        1 MOL      0.380541
     39 H19         4.9880    7.1200   -3.1830 hn        1 MOL      0.380541
     40 H20         3.8110    6.5480   -4.2680 hn        1 MOL      0.380541
     41 N4         -1.6930    4.8660   -0.0060 n         1 MOL     -0.134340
     42 C13        -2.8210    5.4740   -0.7420 c3        1 MOL      0.071170
     43 C14        -4.1330    4.9210   -0.1270 c         1 MOL      0.462413
     44 O6         -5.0940    5.6930   -0.2040 o         1 MOL     -0.555917
     45 C15        -2.6990    5.2460   -2.2550 c3        1 MOL     -0.363603
     46 C16        -2.7090    3.8250   -2.6860 c         1 MOL      0.910645
     47 O7         -2.4830    2.8950   -1.8520 o         1 MOL     -0.748147
     48 O8         -2.7770    3.5850   -3.9130 o         1 MOL     -0.748147
     49 H21        -1.6760    3.8620   -0.0750 hn        1 MOL      0.117751
     50 H22        -2.7950    6.5510   -0.5710 h1        1 MOL      0.101879
     51 H23        -1.7630    5.7760   -2.4020 hc        1 MOL      0.087301
     52 H24        -3.5180    5.7450   -2.7570 hc        1 MOL      0.087301
     53 N5         -4.2080    3.8060    0.6380 n         1 MOL     -0.284376
     54 C17        -5.4040    3.3570    1.3990 c3        1 MOL      0.029519
     55 C18        -6.2520    2.2930    0.7190 c         1 MOL      0.466780
     56 O9         -7.3950    2.3270    1.0910 o         1 MOL     -0.554455
     57 H25        -3.4500    3.1470    0.5840 hn        1 MOL      0.118265
     58 H26        -6.0440    4.2040    1.6160 h1        1 MOL      0.079455
     59 H27        -5.1010    3.0540    2.3990 h1        1 MOL      0.079455
     60 N6         -5.7570    1.4970   -0.2310 n         1 MOL     -0.160490
     61 C19        -6.5920    0.4690   -0.8750 c3        1 MOL     -0.090405
     62 C20        -6.6430   -0.8670   -0.0580 c         1 MOL      0.349465
     63 O10        -7.2810   -1.8250   -0.4820 o         1 MOL     -0.471684
     64 C21        -6.0560    0.2410   -2.3190 c3        1 MOL     -0.142684
     65 C22        -4.8320   -0.6120   -2.5110 c         1 MOL      0.664480
     66 N7         -4.6460   -1.3690   -3.5520 n         1 MOL     -0.845935
     67 O11        -3.9000   -0.6220   -1.6360 o         1 MOL     -0.633752
     68 H28        -4.7600    1.5120   -0.3740 hn        1 MOL      0.099093
     69 H29        -7.5920    0.8910   -0.9410 h1        1 MOL      0.149639
     70 H30        -5.9130    1.2170   -2.7830 hc        1 MOL      0.072123
     71 H31        -6.8010   -0.2980   -2.9080 hc        1 MOL      0.072123
     72 H32        -5.3980   -1.5080   -4.2040 hn        1 MOL      0.400493
     73 H33        -3.7650   -1.8550   -3.6600 hn        1 MOL      0.400493
     74 N8         -5.9740   -0.9470    1.1050 n         1 MOL     -0.196724
     75 C23        -5.9570   -2.1360    1.9280 c3        1 MOL     -0.269761
     76 C24        -4.8070   -3.0970    1.7250 c         1 MOL      0.529295
     77 O12        -4.7460   -4.2020    2.2870 o         1 MOL     -0.563674
     78 H34        -5.3500   -0.1780    1.3340 hn        1 MOL      0.298490
     79 H35        -6.8920   -2.6820    1.8180 h1        1 MOL      0.140523
     80 H36        -5.8540   -1.8480    2.9800 h1        1 MOL      0.140523
     81 N9         -3.8950   -2.7800    0.7970 n         1 MOL     -0.215753
     82 C25        -2.7380   -3.5530    0.4060 c3        1 MOL      0.262109
     83 C26        -1.4530   -2.7770    0.5320 c         1 MOL      0.358104
     84 O13        -1.3030   -1.5760    0.1610 o         1 MOL     -0.691661
     85 C27        -2.9000   -4.0960   -0.9750 c3        1 MOL      0.104541
     86 C28        -4.0310   -5.1280   -1.0500 ca        1 MOL     -0.067703
     87 C29        -5.1570   -4.6780   -1.7340 ca        1 MOL     -0.111747
     88 C30        -3.9620   -6.4020   -0.5220 ca        1 MOL     -0.111747
     89 C31        -6.2820   -5.4890   -1.7670 ca        1 MOL     -0.348889
     90 C32        -5.1160   -7.2420   -0.5570 ca        1 MOL     -0.348889
     91 C33        -6.2690   -6.7170   -1.1190 ca        1 MOL      0.503725
     92 O14        -7.4100   -7.4690   -1.0460 oh        1 MOL     -0.554045
     93 H37        -4.0490   -1.9090    0.3060 hn        1 MOL      0.230792
     94 H38        -2.6220   -4.4440    1.0260 h1        1 MOL     -0.013613
     95 H39        -2.0080   -4.6380   -1.2960 hc        1 MOL     -0.035650
     96 H40        -3.1440   -3.2960   -1.6790 hc        1 MOL     -0.035650
     97 H41        -5.2280   -3.6660   -2.1090 ha        1 MOL      0.133839
     98 H42        -3.0390   -6.6840   -0.0240 ha        1 MOL      0.133839
     99 H43        -7.2080   -5.1190   -2.1740 ha        1 MOL      0.165499
    100 H44        -5.1850   -8.2340   -0.1090 ha        1 MOL      0.165499
    101 H45        -7.3040   -8.4240   -0.9240 ho        1 MOL      0.372863
    102 N10        -0.4500   -3.5300    1.0510 n         1 MOL     -0.519085
    103 C34         0.8910   -3.0010    1.2420 c3        1 MOL      0.057419
    104 C35         1.8460   -3.7540    0.2710 c         1 MOL      0.537173
    105 O15         2.0070   -4.9690    0.4020 o         1 MOL     -0.541111
    106 C36         1.2330   -2.9960    2.7680 c3        1 MOL     -0.058730
    107 C37         0.5570   -1.7810    3.4540 c3        1 MOL      0.221049
    108 C38         2.7600   -3.0020    3.0380 c3        1 MOL     -0.286207
    109 C39         0.7410   -1.8370    5.0170 c3        1 MOL     -0.458213
    110 H46        -0.6490   -4.5160    1.1430 hn        1 MOL      0.345020
    111 H47         0.8700   -2.0110    0.8050 h1        1 MOL     -0.016252
    112 H48         0.8260   -3.9080    3.2060 hc        1 MOL      0.055825
    113 H49        -0.5080   -1.7450    3.2270 hc        1 MOL      0.039731
    114 H50         1.0160   -0.8960    2.9870 hc        1 MOL      0.039731
    115 H51         3.1930   -3.8970    2.5840 hc        1 MOL      0.086187
    116 H52         3.2160   -2.0460    2.7720 hc        1 MOL      0.086187
    117 H53         3.0160   -3.1820    4.0820 hc        1 MOL      0.086187
    118 H54         1.7590   -1.5010    5.2210 hc        1 MOL      0.109657
    119 H55        -0.0500   -1.1790    5.3890 hc        1 MOL      0.109657
    120 H56         0.5920   -2.8400    5.4290 hc        1 MOL      0.109657
    121 N11         2.3500   -3.0050   -0.7090 n         1 MOL     -0.333004
    122 C40         3.3850   -3.4180   -1.6450 c3        1 MOL     -0.245554
    123 C41         4.7460   -3.4400   -1.0100 c         1 MOL      0.559464
    124 O16         4.9480   -2.8930    0.0680 o         1 MOL     -0.392209
    125 C42         3.4440   -2.4840   -2.8620 c3        1 MOL     -0.070158
    126 O17         3.9260   -1.2330   -2.4720 oh        1 MOL     -0.561482
    127 H57         2.2070   -2.0100   -0.8490 hn        1 MOL      0.534309
    128 H58         3.1050   -4.4000   -2.0220 h1        1 MOL      0.102381
    129 H59         2.4590   -2.3190   -3.3000 h1        1 MOL      0.099323
    130 H60         4.1370   -3.0340   -3.4920 h1        1 MOL      0.099323
    131 H61         3.3710   -0.7620   -1.8510 ho        1 MOL      0.390667
    132 N12         5.7540   -4.0840   -1.5970 n         1 MOL     -0.421452
    133 C43         7.1410   -4.1420   -1.0300 c3        1 MOL      0.000326
    134 C44         7.8130   -2.7820   -1.1140 c         1 MOL      0.566120
    135 O18         8.5830   -2.4360   -0.2560 o         1 MOL     -0.537613
    136 C45         7.9710   -5.2710   -1.7520 c3        1 MOL     -0.359077
    137 H62         5.7160   -4.3740   -2.5650 hn        1 MOL      0.283835
    138 H63         7.0390   -4.3830    0.0320 h1        1 MOL      0.142742
    139 H64         8.0600   -5.1890   -2.8390 hc        1 MOL      0.116471
    140 H65         8.9990   -5.3690   -1.4060 hc        1 MOL      0.116471
    141 H66         7.4210   -6.2090   -1.6100 hc        1 MOL      0.116471
    142 N13         7.4340   -1.8880   -2.0390 n         1 MOL     -0.484517
    143 C46         7.9150   -0.4930   -2.0390 c3        1 MOL      0.149223
    144 C47         7.2850    0.3950   -0.9420 c         1 MOL      0.334261
    145 O19         7.8270    1.4650   -0.6420 o         1 MOL     -0.526224
    146 C48         7.6750    0.1230   -3.3800 c3        1 MOL     -0.360243
    147 H67         6.9400   -2.1600   -2.8690 hn        1 MOL      0.311395
    148 H68         8.9740   -0.4680   -1.7960 h1        1 MOL      0.100532
    149 H69         8.3600   -0.3150   -4.0990 hc        1 MOL      0.096046
    150 H70         6.7300   -0.1880   -3.8150 hc        1 MOL      0.096046
    151 H71         7.7680    1.2100   -3.3920 hc        1 MOL      0.096046
    152 N14         6.1580   -0.0150   -0.3720 n         1 MOL      0.121153
    153 C49         5.5470    0.6870    0.7580 c3        1 MOL     -0.269018
    154 C50         6.2140    0.1720    2.0690 c         1 MOL      0.495547
    155 O20         6.5080    0.8530    3.0260 o         1 MOL     -0.541492
    156 C51         4.0760    0.4050    0.7690 c3        1 MOL      0.412206
    157 C52         3.3510    1.4490   -0.1220 c3        1 MOL     -0.275247
    158 C53         2.0000    0.8270   -0.3520 c         1 MOL      0.800098
    159 O21         0.9580    1.4620   -0.0430 o         1 MOL     -0.737271
    160 O22         1.9960   -0.2340   -1.0040 o         1 MOL     -0.737271
    161 H72         5.6390   -0.8250   -0.6870 hn        1 MOL     -0.071035
    162 H73         5.8290    1.7360    0.6710 h1        1 MOL      0.102059
    163 H74         3.6430    0.2890    1.7620 hc        1 MOL     -0.054421
    164 H75         3.9520   -0.5770    0.3230 hc        1 MOL     -0.054421
    165 H76         3.8650    1.6580   -1.0600 hc        1 MOL      0.019002
    166 H77         3.2320    2.3550    0.4740 hc        1 MOL      0.019002
    167 N15         6.3760   -1.1400    2.1050 n         1 MOL     -0.082806
    168 C54         6.9600   -1.7550    3.3110 c3        1 MOL     -0.378027
    169 H78         6.4890   -1.3320    4.1980 h1        1 MOL      0.135151
    170 H79         6.7920   -2.8310    3.2890 h1        1 MOL      0.135151
    171 H80         8.0310   -1.5540    3.3380 h1        1 MOL      0.135151
    172 H81         5.9290   -1.6630    1.3700 hn        1 MOL      0.111263
    173 Ca1        -1.1410    0.6960   -1.2230 Ca        1 MOL      1.833002
    174 O23        -2.0740    0.9110   -3.9180 oh        1 MOL     -0.862372
    175 H82        -2.4220    1.8040   -3.9170 ho        1 MOL      0.407504
    176 H83        -2.3620    0.5430   -4.7500 ho        1 MOL      0.407504
    177 O24        -0.5170   -1.4560   -2.7420 oh        1 MOL     -0.862372
    178 H84        -1.0270   -1.5890   -3.5450 ho        1 MOL      0.407504
    179 H85        -0.1050   -2.2960   -2.5720 ho        1 MOL      0.407504
    180 O25         0.4410    2.3440   -2.7730 oh        1 MOL     -0.862372
    181 H86         0.7500    1.6100   -3.3030 ho        1 MOL      0.407504
    182 H87         0.3000    3.0560   -3.3980 ho        1 MOL      0.407504
@<TRIPOS>BOND
     1    1    2 1   
     2    1    4 1   
     3    1    5 1   
     4    1    6 1   
     5    2    3 2   
     6    2    7 1   
     7    7    8 1   
     8    7   15 1   
     9    8    9 1   
    10    8   11 1   
    11    8   16 1   
    12    9   10 2   
    13    9   19 1   
    14   11   12 1   
    15   11   17 1   
    16   11   18 1   
    17   12   13 1   
    18   12   14 1   
    19   19   20 1   
    20   19   28 1   
    21   20   21 1   
    22   20   23 1   
    23   20   29 1   
    24   21   22 2   
    25   21   41 1   
    26   23   24 1   
    27   23   30 1   
    28   23   31 1   
    29   24   25 1   
    30   24   32 1   
    31   24   33 1   
    32   25   26 1   
    33   25   34 1   
    34   25   35 1   
    35   26   27 1   
    36   26   36 1   
    37   26   37 1   
    38   27   38 1   
    39   27   39 1   
    40   27   40 1   
    41   41   42 1   
    42   41   49 1   
    43   42   43 1   
    44   42   45 1   
    45   42   50 1   
    46   43   44 2   
    47   43   53 1   
    48   45   46 1   
    49   45   51 1   
    50   45   52 1   
    51   46   47 1   
    52   46   48 1   
    53   53   54 1   
    54   53   57 1   
    55   54   55 1   
    56   54   58 1   
    57   54   59 1   
    58   55   56 2   
    59   55   60 1   
    60   60   61 1   
    61   60   68 1   
    62   61   62 1   
    63   61   64 1   
    64   61   69 1   
    65   62   63 2   
    66   62   74 1   
    67   64   65 1   
    68   64   70 1   
    69   64   71 1   
    70   65   66 1   
    71   65   67 2   
    72   66   72 1   
    73   66   73 1   
    74   74   75 1   
    75   74   78 1   
    76   75   76 1   
    77   75   79 1   
    78   75   80 1   
    79   76   77 2   
    80   76   81 1   
    81   81   82 1   
    82   81   93 1   
    83   82   83 1   
    84   82   85 1   
    85   82   94 1   
    86   83   84 2   
    87   83  102 1   
    88   85   86 1   
    89   85   95 1   
    90   85   96 1   
    91   86   87 ar  
    92   86   88 ar  
    93   87   89 ar  
    94   87   97 1   
    95   88   90 ar  
    96   88   98 1   
    97   89   91 ar  
    98   89   99 1   
    99   90   91 ar  
   100   90  100 1   
   101   91   92 1   
   102   92  101 1   
   103  102  103 1   
   104  102  110 1   
   105  103  104 1   
   106  103  106 1   
   107  103  111 1   
   108  104  105 2   
   109  104  121 1   
   110  106  107 1   
   111  106  108 1   
   112  106  112 1   
   113  107  109 1   
   114  107  113 1   
   115  107  114 1   
   116  108  115 1   
   117  108  116 1   
   118  108  117 1   
   119  109  118 1   
   120  109  119 1   
   121  109  120 1   
   122  121  122 1   
   123  121  127 1   
   124  122  123 1   
   125  122  125 1   
   126  122  128 1   
   127  123  124 2   
   128  123  132 1   
   129  125  126 1   
   130  125  129 1   
   131  125  130 1   
   132  126  131 1   
   133  132  133 1   
   134  132  137 1   
   135  133  134 1   
   136  133  136 1   
   137  133  138 1   
   138  134  135 2   
   139  134  142 1   
   140  136  139 1   
   141  136  140 1   
   142  136  141 1   
   143  142  143 1   
   144  142  147 1   
   145  143  144 1   
   146  143  146 1   
   147  143  148 1   
   148  144  145 2   
   149  144  152 1   
   150  146  149 1   
   151  146  150 1   
   152  146  151 1   
   153  152  153 1   
   154  152  161 1   
   155  153  154 1   
   156  153  156 1   
   157  153  162 1   
   158  154  155 2   
   159  154  167 1   
   160  156  157 1   
   161  156  163 1   
   162  156  164 1   
   163  157  158 1   
   164  157  165 1   
   165  157  166 1   
   166  158  159 1   
   167  158  160 1   
   168  167  168 1   
   169  167  172 1   
   170  168  169 1   
   171  168  170 1   
   172  168  171 1   
   173  174  175 1   
   174  174  176 1   
   175  177  178 1   
   176  177  179 1   
   177  180  181 1   
   178  180  182 1   
@<TRIPOS>SUBSTRUCTURE
     1 MOL         1 TEMP              0 ****  ****    0 ROOT
