@<TRIPOS>MOLECULE
MOL
  182   178     1     0     0
SMALL
resp


@<TRIPOS>ATOM
      1 C1         -2.6470   -2.4800    5.0370 c3        1 MOL     -0.332746
      2 C2         -1.8270   -2.6050    3.7050 c         1 MOL      0.570015
      3 O1         -2.5200   -2.4370    2.7060 o         1 MOL     -0.504128
      4 H1         -3.0780   -1.4810    5.1050 hc        1 MOL      0.091041
      5 H2         -3.4460   -3.2220    5.0430 hc        1 MOL      0.091041
      6 H3         -1.9870   -2.6500    5.8880 hc        1 MOL      0.091041
      7 N1         -0.4890   -2.6790    3.7560 n         1 MOL     -0.496243
      8 C3          0.4550   -2.4250    2.6680 c3        1 MOL      0.195362
      9 C4          0.6380   -3.6710    1.8390 c         1 MOL      0.384506
     10 O2          1.5620   -4.5240    2.0050 o         1 MOL     -0.534068
     11 C5          1.7350   -1.7460    3.1350 c3        1 MOL     -0.194252
     12 C6          2.8480   -1.5600    2.1340 c         1 MOL      0.862525
     13 O3          4.0000   -1.4160    2.5280 o         1 MOL     -0.720300
     14 O4          2.5580   -1.5990    0.9180 o         1 MOL     -0.720300
     15 H4         -0.0160   -2.6950    4.6470 hn        1 MOL      0.314967
     16 H5         -0.0460   -1.8100    1.9270 h1        1 MOL     -0.091436
     17 H6          2.2020   -2.3800    3.8970 hc        1 MOL      0.034699
     18 H7          1.6050   -0.7710    3.6030 hc        1 MOL      0.034699
     19 N2         -0.0840   -3.8790    0.7590 n         1 MOL     -0.139265
     20 C7         -0.2710   -5.1880   -0.0070 c3        1 MOL     -0.052758
     21 C8          0.9740   -5.5180   -0.8790 c         1 MOL      0.393466
     22 O5          1.0130   -6.6420   -1.4250 o         1 MOL     -0.577131
     23 C9         -1.6090   -5.1400   -0.7570 c3        1 MOL     -0.181876
     24 C10        -2.2340   -6.5070   -1.0640 c3        1 MOL      0.189852
     25 C11        -3.7190   -6.5540   -1.4480 c3        1 MOL     -0.386178
     26 C12        -4.7080   -5.9760   -0.4730 c3        1 MOL      0.000568
     27 N3         -4.7970   -6.7610    0.8310 n4        1 MOL     -0.385255
     28 H8         -0.6850   -3.1260    0.4570 hn        1 MOL      0.059245
     29 H9         -0.4530   -5.8940    0.8130 h1        1 MOL      0.108100
     30 H10        -1.4720   -4.6350   -1.7160 hc        1 MOL      0.089498
     31 H11        -2.3010   -4.5700   -0.1380 hc        1 MOL      0.089498
     32 H12        -2.0650   -7.2290   -0.2580 hc        1 MOL      0.005306
     33 H13        -1.7260   -6.9550   -1.9130 hc        1 MOL      0.005306
     34 H14        -3.9600   -7.5780   -1.7300 hc        1 MOL      0.138677
     35 H15        -3.7800   -6.0760   -2.4330 hc        1 MOL      0.138677
     36 H16        -5.6790   -6.0310   -0.9470 hx        1 MOL      0.128570
     37 H17        -4.4610   -4.9270   -0.2770 hx        1 MOL      0.128570
     38 H18        -5.6620   -6.5220    1.2890 hn        1 MOL      0.341619
     39 H19        -4.8750   -7.7400    0.6180 hn        1 MOL      0.341619
     40 H20        -3.9360   -6.6200    1.3490 hn        1 MOL      0.341619
     41 N4          1.9860   -4.6600   -1.0210 n         1 MOL      0.025819
     42 C13         3.3020   -5.0110   -1.7000 c3        1 MOL     -0.049297
     43 C14         4.4780   -4.6140   -0.7360 c         1 MOL      0.261627
     44 O6          5.6620   -4.8360   -1.0560 o         1 MOL     -0.489203
     45 C15         3.4270   -4.3150   -3.0440 c3        1 MOL     -0.051815
     46 C16         3.3280   -2.7710   -3.1110 c         1 MOL      0.710542
     47 O7          3.1020   -2.1320   -2.1000 o         1 MOL     -0.709536
     48 O8          3.4810   -2.2680   -4.2630 o         1 MOL     -0.709536
     49 H21         2.0010   -3.7890   -0.5160 hn        1 MOL      0.048098
     50 H22         3.3760   -6.0800   -1.9170 h1        1 MOL      0.128227
     51 H23         2.6320   -4.7800   -3.6420 hc        1 MOL      0.026476
     52 H24         4.3310   -4.6440   -3.5560 hc        1 MOL      0.026476
     53 N5          4.2620   -4.0960    0.4910 n         1 MOL      0.034217
     54 C17         5.3410   -3.8980    1.3980 c3        1 MOL     -0.114527
     55 C18         6.3170   -2.7590    0.9940 c         1 MOL      0.448100
     56 O9          7.5470   -2.7860    1.1920 o         1 MOL     -0.553609
     57 H25         3.2950   -4.1210    0.7900 hn        1 MOL      0.042744
     58 H26         5.9080   -4.8190    1.4970 h1        1 MOL      0.081663
     59 H27         4.9060   -3.6750    2.3710 h1        1 MOL      0.081663
     60 N6          5.8020   -1.7570    0.1620 n         1 MOL     -0.072296
     61 C19         6.5910   -0.6850   -0.4980 c3        1 MOL     -0.242586
     62 C20         6.6240    0.5670    0.3400 c         1 MOL      0.366373
     63 O10         7.0680    1.5560   -0.3030 o         1 MOL     -0.423030
     64 C21         5.9820   -0.5800   -1.9200 c3        1 MOL     -0.028684
     65 C22         4.8720    0.4020   -2.0620 c         1 MOL      0.535010
     66 N7          4.7510    1.1460   -3.1180 n         1 MOL     -0.672507
     67 O11         4.0750    0.6490   -1.1640 o         1 MOL     -0.593500
     68 H28         4.8100   -1.5760    0.1160 hn        1 MOL      0.126897
     69 H29         7.6200   -1.0510   -0.5120 h1        1 MOL      0.180078
     70 H30         5.6750   -1.5860   -2.2050 hc        1 MOL      0.064782
     71 H31         6.8120   -0.2970   -2.5640 hc        1 MOL      0.064782
     72 H32         5.2840    0.9470   -3.9510 hn        1 MOL      0.352091
     73 H33         4.0150    1.8400   -3.0880 hn        1 MOL      0.352091
     74 N8          6.1910    0.5450    1.6470 n         1 MOL     -0.259009
     75 C23         6.1860    1.7070    2.5360 c3        1 MOL     -0.333634
     76 C24         5.1700    2.7560    2.1760 c         1 MOL      0.488065
     77 O12         5.1160    3.7500    2.8740 o         1 MOL     -0.568783
     78 H34         5.8820   -0.3360    2.0450 hn        1 MOL      0.320407
     79 H35         7.1530    2.2240    2.5630 h1        1 MOL      0.166002
     80 H36         6.0310    1.2730    3.5180 h1        1 MOL      0.166002
     81 N9          4.3440    2.6630    1.1410 n         1 MOL      0.020415
     82 C25         3.1340    3.5290    0.8960 c3        1 MOL      0.204007
     83 C26         1.7700    2.7530    0.8400 c         1 MOL      0.366291
     84 O13         1.7180    1.6130    0.3810 o         1 MOL     -0.762874
     85 C27         3.3020    4.2040   -0.4370 c3        1 MOL      0.079325
     86 C28         4.4640    5.1050   -0.4980 ca        1 MOL     -0.028990
     87 C29         5.7200    4.7380   -0.9220 ca        1 MOL     -0.146818
     88 C30         4.3260    6.5010   -0.1720 ca        1 MOL     -0.146818
     89 C31         6.7920    5.6530   -1.0070 ca        1 MOL     -0.235032
     90 C32         5.2930    7.4380   -0.3120 ca        1 MOL     -0.235032
     91 C33         6.6100    7.0370   -0.7490 ca        1 MOL      0.292968
     92 O14         7.6870    7.9120   -0.9120 oh        1 MOL     -0.450813
     93 H37         4.4810    1.8140    0.6000 hn        1 MOL      0.059352
     94 H38         3.0890    4.2170    1.7330 h1        1 MOL     -0.009200
     95 H39         2.4060    4.7850   -0.6490 hc        1 MOL      0.007029
     96 H40         3.3870    3.5090   -1.2630 hc        1 MOL      0.007029
     97 H41         5.9250    3.7080   -1.1880 ha        1 MOL      0.103687
     98 H42         3.3500    6.7600    0.2140 ha        1 MOL      0.103687
     99 H43         7.8070    5.3520   -1.2220 ha        1 MOL      0.139775
    100 H44         5.1530    8.5010   -0.1620 ha        1 MOL      0.139775
    101 H45         7.2580    8.7650   -0.9680 ho        1 MOL      0.329241
    102 N10         0.6340    3.3380    1.2170 n         1 MOL     -0.269994
    103 C34        -0.7430    2.7640    0.9780 c3        1 MOL     -0.151308
    104 C35        -1.6410    3.7450    0.2340 c         1 MOL      0.472665
    105 O15        -1.3360    4.9660    0.0330 o         1 MOL     -0.524088
    106 C36        -1.3120    2.2660    2.3760 c3        1 MOL     -0.186304
    107 C37        -1.6230    3.4760    3.3260 c3        1 MOL     -0.202285
    108 C38        -0.3350    1.2060    3.0250 c3        1 MOL      0.099028
    109 C39        -2.4050    3.1360    4.5810 c3        1 MOL     -0.132624
    110 H46         0.7020    4.2930    1.5300 hn        1 MOL      0.251545
    111 H47        -0.5650    1.9280    0.3020 h1        1 MOL      0.260483
    112 H48        -2.2450    1.7190    2.2260 hc        1 MOL      0.162670
    113 H49        -2.3060    4.1240    2.7940 hc        1 MOL      0.101181
    114 H50        -0.6680    3.9280    3.6220 hc        1 MOL      0.101181
    115 H51        -0.6130    0.9910    4.0530 hc        1 MOL      0.016981
    116 H52        -0.3980    0.2340    2.5310 hc        1 MOL      0.016981
    117 H53         0.6910    1.5880    3.0410 hc        1 MOL      0.016981
    118 H54        -2.4900    4.0530    5.1620 hc        1 MOL      0.045162
    119 H55        -3.3150    2.6400    4.2600 hc        1 MOL      0.045162
    120 H56        -1.8830    2.4480    5.2410 hc        1 MOL      0.045162
    121 N11        -2.7840    3.1330   -0.2010 n         1 MOL     -0.093346
    122 C40        -3.7430    3.6560   -1.1340 c3        1 MOL     -0.153941
    123 C41        -5.2290    3.5130   -0.6860 c         1 MOL      0.534265
    124 O16        -5.4710    2.8730    0.3300 o         1 MOL     -0.461932
    125 C42        -3.5730    2.9520   -2.4710 c3        1 MOL     -0.038263
    126 O17        -3.9030    1.5640   -2.4700 oh        1 MOL     -0.571787
    127 H57        -2.9970    2.1630   -0.0030 hn        1 MOL      0.060063
    128 H58        -3.5480    4.7090   -1.3230 h1        1 MOL      0.084177
    129 H59        -2.5220    2.9990   -2.7420 h1        1 MOL      0.089691
    130 H60        -4.1340    3.3870   -3.3040 h1        1 MOL      0.089691
    131 H61        -3.1000    1.1290   -2.1970 ho        1 MOL      0.390507
    132 N12        -6.2010    4.1730   -1.3260 n         1 MOL     -0.344660
    133 C43        -7.6230    4.2040   -0.7920 c3        1 MOL     -0.007221
    134 C44        -8.4060    2.9110   -0.9720 c         1 MOL      0.482559
    135 O18        -9.0490    2.3570   -0.0870 o         1 MOL     -0.515370
    136 C45        -8.2700    5.5020   -1.3410 c3        1 MOL     -0.224444
    137 H62        -5.9150    4.8610   -2.0040 hn        1 MOL      0.250017
    138 H63        -7.4340    4.3040    0.2810 h1        1 MOL      0.113321
    139 H64        -9.0130    5.9650   -0.6900 hc        1 MOL      0.082743
    140 H65        -7.5020    6.2660   -1.4410 hc        1 MOL      0.082743
    141 H66        -8.7120    5.2740   -2.3080 hc        1 MOL      0.082743
    142 N13        -8.0400    2.1430   -1.9960 n         1 MOL     -0.320971
    143 C46        -8.3740    0.7120   -2.1190 c3        1 MOL      0.039113
    144 C47        -7.6230   -0.2230   -1.1500 c         1 MOL      0.498187
    145 O19        -8.1480   -1.1990   -0.6950 o         1 MOL     -0.539091
    146 C48        -8.1610    0.2980   -3.5380 c3        1 MOL     -0.187256
    147 H67        -7.4370    2.5210   -2.7200 hn        1 MOL      0.250795
    148 H68        -9.3850    0.5180   -1.7780 h1        1 MOL      0.091999
    149 H69        -8.5090    1.1470   -4.1290 hc        1 MOL      0.056018
    150 H70        -7.1130    0.1510   -3.7850 hc        1 MOL      0.056018
    151 H71        -8.6360   -0.6290   -3.8300 hc        1 MOL      0.056018
    152 N14        -6.3680    0.0300   -0.7830 n         1 MOL     -0.226581
    153 C49        -5.6180   -0.6900    0.2910 c3        1 MOL     -0.170910
    154 C50        -6.3370   -0.5350    1.6180 c         1 MOL      0.560187
    155 O20        -6.4950   -1.4960    2.3100 o         1 MOL     -0.580071
    156 C51        -4.1550   -0.1950    0.5310 c3        1 MOL      0.212182
    157 C52        -3.2230   -1.1330   -0.2920 c3        1 MOL     -0.077110
    158 C53        -1.8520   -0.4450   -0.5380 c         1 MOL      0.681550
    159 O21        -1.8750    0.6330   -1.1750 o         1 MOL     -0.662094
    160 O22        -0.7640   -1.0090   -0.1840 o         1 MOL     -0.662094
    161 H72        -5.9700    0.8680   -1.1730 hn        1 MOL      0.156885
    162 H73        -5.6460   -1.7510    0.0190 h1        1 MOL      0.090740
    163 H74        -3.9620   -0.1810    1.6060 hc        1 MOL     -0.039079
    164 H75        -4.0690    0.8240    0.1760 hc        1 MOL     -0.039079
    165 H76        -3.6710   -1.2480   -1.2760 hc        1 MOL     -0.003314
    166 H77        -3.1790   -2.1170    0.1890 hc        1 MOL     -0.003314
    167 N15        -6.8020    0.6570    1.9320 n         1 MOL     -0.132984
    168 C54        -7.6750    0.8920    3.1030 c3        1 MOL     -0.325126
    169 H78        -7.9540    1.9450    3.1400 h1        1 MOL      0.127969
    170 H79        -8.5730    0.2810    3.0150 h1        1 MOL      0.127969
    171 H80        -7.1410    0.6260    4.0150 h1        1 MOL      0.127969
    172 H81        -6.6230    1.3470    1.2210 hn        1 MOL      0.157639
    173 Ca1         1.5680   -0.4220   -1.1630 Ca        1 MOL      1.799155
    174 O23         0.3030   -2.3660   -2.5730 oh        1 MOL     -0.843798
    175 H82        -0.6110   -2.0970   -2.5730 ho        1 MOL      0.398685
    176 H83         0.3100   -3.2220   -3.0080 ho        1 MOL      0.398685
    177 O24         1.8880   -0.2640   -3.8920 oh        1 MOL     -0.843798
    178 H84         1.3550   -0.4100   -4.6780 ho        1 MOL      0.398685
    179 H85         2.5300   -0.9720   -3.9160 ho        1 MOL      0.398685
    180 O25         0.1870    1.7390   -2.3620 oh        1 MOL     -0.843798
    181 H86        -0.6400    1.6320   -1.8960 ho        1 MOL      0.398685
    182 H87         0.2330    2.6740   -2.5790 ho        1 MOL      0.398685
@<TRIPOS>BOND
     1    1    2 1   
     2    1    4 1   
     3    1    5 1   
     4    1    6 1   
     5    2    3 2   
     6    2    7 1   
     7    7    8 1   
     8    7   15 1   
     9    8    9 1   
    10    8   11 1   
    11    8   16 1   
    12    9   10 2   
    13    9   19 1   
    14   11   12 1   
    15   11   17 1   
    16   11   18 1   
    17   12   13 1   
    18   12   14 1   
    19   19   20 1   
    20   19   28 1   
    21   20   21 1   
    22   20   23 1   
    23   20   29 1   
    24   21   22 2   
    25   21   41 1   
    26   23   24 1   
    27   23   30 1   
    28   23   31 1   
    29   24   25 1   
    30   24   32 1   
    31   24   33 1   
    32   25   26 1   
    33   25   34 1   
    34   25   35 1   
    35   26   27 1   
    36   26   36 1   
    37   26   37 1   
    38   27   38 1   
    39   27   39 1   
    40   27   40 1   
    41   41   42 1   
    42   41   49 1   
    43   42   43 1   
    44   42   45 1   
    45   42   50 1   
    46   43   44 2   
    47   43   53 1   
    48   45   46 1   
    49   45   51 1   
    50   45   52 1   
    51   46   47 1   
    52   46   48 1   
    53   53   54 1   
    54   53   57 1   
    55   54   55 1   
    56   54   58 1   
    57   54   59 1   
    58   55   56 2   
    59   55   60 1   
    60   60   61 1   
    61   60   68 1   
    62   61   62 1   
    63   61   64 1   
    64   61   69 1   
    65   62   63 2   
    66   62   74 1   
    67   64   65 1   
    68   64   70 1   
    69   64   71 1   
    70   65   66 1   
    71   65   67 2   
    72   66   72 1   
    73   66   73 1   
    74   74   75 1   
    75   74   78 1   
    76   75   76 1   
    77   75   79 1   
    78   75   80 1   
    79   76   77 2   
    80   76   81 1   
    81   81   82 1   
    82   81   93 1   
    83   82   83 1   
    84   82   85 1   
    85   82   94 1   
    86   83   84 2   
    87   83  102 1   
    88   85   86 1   
    89   85   95 1   
    90   85   96 1   
    91   86   87 ar  
    92   86   88 ar  
    93   87   89 ar  
    94   87   97 1   
    95   88   90 ar  
    96   88   98 1   
    97   89   91 ar  
    98   89   99 1   
    99   90   91 ar  
   100   90  100 1   
   101   91   92 1   
   102   92  101 1   
   103  102  103 1   
   104  102  110 1   
   105  103  104 1   
   106  103  106 1   
   107  103  111 1   
   108  104  105 2   
   109  104  121 1   
   110  106  107 1   
   111  106  108 1   
   112  106  112 1   
   113  107  109 1   
   114  107  113 1   
   115  107  114 1   
   116  108  115 1   
   117  108  116 1   
   118  108  117 1   
   119  109  118 1   
   120  109  119 1   
   121  109  120 1   
   122  121  122 1   
   123  121  127 1   
   124  122  123 1   
   125  122  125 1   
   126  122  128 1   
   127  123  124 2   
   128  123  132 1   
   129  125  126 1   
   130  125  129 1   
   131  125  130 1   
   132  126  131 1   
   133  132  133 1   
   134  132  137 1   
   135  133  134 1   
   136  133  136 1   
   137  133  138 1   
   138  134  135 2   
   139  134  142 1   
   140  136  139 1   
   141  136  140 1   
   142  136  141 1   
   143  142  143 1   
   144  142  147 1   
   145  143  144 1   
   146  143  146 1   
   147  143  148 1   
   148  144  145 2   
   149  144  152 1   
   150  146  149 1   
   151  146  150 1   
   152  146  151 1   
   153  152  153 1   
   154  152  161 1   
   155  153  154 1   
   156  153  156 1   
   157  153  162 1   
   158  154  155 2   
   159  154  167 1   
   160  156  157 1   
   161  156  163 1   
   162  156  164 1   
   163  157  158 1   
   164  157  165 1   
   165  157  166 1   
   166  158  159 1   
   167  158  160 1   
   168  167  168 1   
   169  167  172 1   
   170  168  169 1   
   171  168  170 1   
   172  168  171 1   
   173  174  175 1   
   174  174  176 1   
   175  177  178 1   
   176  177  179 1   
   177  180  181 1   
   178  180  182 1   
@<TRIPOS>SUBSTRUCTURE
     1 MOL         1 TEMP              0 ****  ****    0 ROOT
