@<TRIPOS>MOLECULE
MOL
  175   173     1     0     0
SMALL
resp


@<TRIPOS>ATOM
      1 C1          0.3840    4.1580    5.6550 c3        1 MOL     -0.418028
      2 C2         -0.2500    4.0930    4.2130 c         1 MOL      0.686039
      3 O1          0.5040    4.1750    3.2660 o         1 MOL     -0.510312
      4 H1          0.9130    3.2270    5.8610 hc        1 MOL      0.101575
      5 H2          1.0840    4.9920    5.7070 hc        1 MOL      0.101575
      6 H3         -0.4050    4.2990    6.3930 hc        1 MOL      0.101575
      7 N1         -1.5760    3.8930    4.0620 n         1 MOL     -0.681934
      8 C3         -2.1850    3.5640    2.7570 c3        1 MOL      0.185277
      9 C4         -2.0020    4.7490    1.8170 c         1 MOL      0.515534
     10 O2         -1.7200    5.9310    2.2210 o         1 MOL     -0.544373
     11 C5         -3.6170    3.1300    2.8760 c3        1 MOL     -0.097135
     12 C6         -4.1510    2.6120    1.5960 c         1 MOL      0.581060
     13 O3         -5.1740    3.1030    1.1430 o         1 MOL     -0.626336
     14 O4         -3.4910    1.8430    0.9110 o         1 MOL     -0.626336
     15 H4         -2.1430    3.9870    4.8990 hn        1 MOL      0.336842
     16 H5         -1.6070    2.7150    2.3920 h1        1 MOL      0.065760
     17 H6         -4.1930    3.9360    3.3310 hc        1 MOL      0.000579
     18 H7         -3.6440    2.3210    3.6070 hc        1 MOL      0.000579
     19 N2         -2.1350    4.4570    0.5090 n         1 MOL     -0.521364
     20 C7         -2.1350    5.4260   -0.6070 c3        1 MOL      0.276808
     21 C8         -3.2210    5.0690   -1.7560 c         1 MOL      0.359802
     22 O5         -3.2650    5.7960   -2.7210 o         1 MOL     -0.545434
     23 C9         -0.7240    5.7230   -1.0840 c3        1 MOL     -0.164986
     24 H8         -2.1620    3.4840    0.2660 hn        1 MOL      0.448120
     25 H9         -2.3770    6.3650   -0.1150 h1        1 MOL      0.006901
     26 H10        -0.5660    6.7180   -1.5070 hc        1 MOL      0.044585
     27 H11         0.0270    5.6690   -0.2980 hc        1 MOL      0.044585
     28 H12        -0.4550    5.0130   -1.8620 hc        1 MOL      0.044585
     29 N3         -3.9370    3.9420   -1.6700 n         1 MOL     -0.148457
     30 C10        -4.7180    3.4980   -2.8590 c3        1 MOL     -0.001525
     31 C11        -5.9880    2.6350   -2.5370 c         1 MOL      0.278402
     32 O6         -6.7330    2.2890   -3.4330 o         1 MOL     -0.505022
     33 C12        -3.8150    2.5330   -3.6350 c3        1 MOL     -0.108726
     34 C13        -3.2090    1.4330   -2.8020 c         1 MOL      0.685750
     35 O7         -1.9750    1.3180   -2.7610 o         1 MOL     -0.696535
     36 O8         -3.8770    0.7020   -2.0140 o         1 MOL     -0.696535
     37 H13        -3.7530    3.3710   -0.8550 hn        1 MOL      0.017627
     38 H14        -4.9540    4.2980   -3.5630 h1        1 MOL      0.116497
     39 H15        -3.0370    3.1430   -4.0930 hc        1 MOL      0.035475
     40 H16        -4.3900    2.1230   -4.4640 hc        1 MOL      0.035475
     41 N4         -6.2640    2.2680   -1.2990 n         1 MOL     -0.008796
     42 C14        -7.5120    1.5600   -0.9100 c3        1 MOL     -0.228290
     43 C15        -7.6600    0.0530   -1.3400 c         1 MOL      0.381275
     44 O9         -8.7170   -0.4660   -1.7020 o         1 MOL     -0.546441
     45 H17        -5.6740    2.4140   -0.4860 hn        1 MOL      0.075401
     46 H18        -8.3200    2.2170   -1.2400 h1        1 MOL      0.109907
     47 H19        -7.5090    1.5150    0.1780 h1        1 MOL      0.109907
     48 N5         -6.5070   -0.6100   -1.5150 n         1 MOL     -0.085617
     49 C16        -6.4610   -1.9570   -2.0580 c3        1 MOL     -0.053206
     50 C17        -6.4970   -3.1290   -1.0620 c         1 MOL      0.429848
     51 O10        -6.8380   -4.2460   -1.4070 o         1 MOL     -0.556708
     52 C18        -5.2830   -2.1590   -3.0430 c3        1 MOL      0.047873
     53 C19        -3.8780   -2.0500   -2.4570 c         1 MOL      0.437838
     54 N6         -2.8140   -2.1310   -3.1600 n         1 MOL     -0.590517
     55 O11        -3.6880   -1.9230   -1.2790 o         1 MOL     -0.388342
     56 H20        -5.6860   -0.0330   -1.6330 hn        1 MOL      0.218635
     57 H21        -7.3390   -2.1050   -2.6730 h1        1 MOL      0.091340
     58 H22        -5.3470   -1.3670   -3.7870 hc        1 MOL     -0.001356
     59 H23        -5.4260   -3.0830   -3.6200 hc        1 MOL     -0.001356
     60 H24        -2.9230   -2.2790   -4.1500 hn        1 MOL      0.296908
     61 H25        -1.9000   -1.9070   -2.7940 hn        1 MOL      0.296908
     62 N7         -6.1830   -2.8460    0.2020 n         1 MOL     -0.190646
     63 C20        -6.3600   -3.7700    1.3550 c3        1 MOL     -0.215411
     64 C21        -5.0100   -4.2640    1.8890 c         1 MOL      0.480951
     65 O12        -4.9290   -4.8460    2.9530 o         1 MOL     -0.583225
     66 H26        -5.8980   -1.9000    0.3780 hn        1 MOL      0.127316
     67 H27        -6.9510   -4.6530    1.1160 h1        1 MOL      0.124501
     68 H28        -6.9120   -3.2470    2.1290 h1        1 MOL      0.124501
     69 N8         -3.9270   -4.0320    1.1580 n         1 MOL     -0.161991
     70 C22        -2.5710   -4.5440    1.4660 c3        1 MOL      0.020651
     71 C23        -1.4620   -3.5430    1.3940 c         1 MOL      0.469672
     72 O13        -1.5460   -2.4940    0.6610 o         1 MOL     -0.646111
     73 C24        -2.0900   -5.6050    0.4710 c3        1 MOL      0.438325
     74 C25        -2.9510   -6.7980    0.3930 c3        1 MOL     -0.363563
     75 O14        -2.1350   -5.1570   -0.8680 oh        1 MOL     -0.598214
     76 H29        -4.0090   -3.5410    0.2850 hn        1 MOL      0.137256
     77 H30        -2.5260   -4.8950    2.4970 h1        1 MOL      0.036034
     78 H31        -1.1000   -5.8590    0.8500 h1        1 MOL     -0.066244
     79 H32        -1.7050   -4.2940   -0.9080 ho        1 MOL      0.372750
     80 H33        -2.9590   -7.3190    1.3480 hc        1 MOL      0.088713
     81 H34        -3.9840   -6.4440    0.3300 hc        1 MOL      0.088713
     82 H35        -2.8190   -7.5080   -0.4280 hc        1 MOL      0.088713
     83 N9         -0.3120   -3.8490    2.0620 n         1 MOL     -0.365366
     84 C26         0.9010   -3.0200    2.0410 c3        1 MOL     -0.026356
     85 C27         1.6320   -3.3060    0.7160 c         1 MOL      0.490036
     86 O15         1.9990   -4.3560    0.3580 o         1 MOL     -0.556676
     87 C28         1.7940   -3.2870    3.2130 c3        1 MOL      0.122753
     88 C29         1.2200   -3.0110    4.6260 c3        1 MOL     -0.084883
     89 C30         3.2800   -2.7850    3.0820 c3        1 MOL     -0.149430
     90 C31         0.8480   -1.5790    4.8560 c3        1 MOL      0.006895
     91 H36        -0.3120   -4.7680    2.4690 hn        1 MOL      0.266902
     92 H37         0.6580   -1.9630    2.1250 h1        1 MOL      0.141787
     93 H38         1.9280   -4.3700    3.2840 hc        1 MOL     -0.029188
     94 H39         2.0130   -3.3500    5.3020 hc        1 MOL      0.010455
     95 H40         0.4500   -3.7730    4.7640 hc        1 MOL      0.010455
     96 H41         3.3000   -1.7070    2.9340 hc        1 MOL      0.027392
     97 H42         3.8300   -3.0050    3.9930 hc        1 MOL      0.027392
     98 H43         3.6840   -3.2780    2.2090 hc        1 MOL      0.027392
     99 H44         0.5630   -1.2960    5.8720 hc        1 MOL     -0.009743
    100 H45         1.6690   -0.9540    4.4970 hc        1 MOL     -0.009743
    101 H46         0.0380   -1.5040    4.1250 hc        1 MOL     -0.009743
    102 N10         1.8190   -2.1850   -0.0350 n         1 MOL     -0.057091
    103 C32         2.5890   -1.8990   -1.2160 c3        1 MOL     -0.053525
    104 C33         4.0670   -1.5260   -0.8870 c         1 MOL      0.502190
    105 O16         4.3070   -0.9420    0.1730 o         1 MOL     -0.354782
    106 C34         1.9060   -0.9590   -2.2630 c3        1 MOL     -0.251051
    107 C35         0.4550   -1.3880   -2.6500 c         1 MOL      0.645073
    108 O17        -0.4010   -1.2840   -1.7550 o         1 MOL     -0.643969
    109 O18         0.1460   -1.6350   -3.8740 o         1 MOL     -0.643969
    110 H47         1.3000   -1.3920    0.3130 hn        1 MOL      0.115085
    111 H48         2.6720   -2.8900   -1.6810 h1        1 MOL      0.045590
    112 H49         2.4650   -0.9440   -3.2060 hc        1 MOL      0.081661
    113 H50         1.9510    0.0970   -2.0220 hc        1 MOL      0.081661
    114 N11         5.0160   -1.7380   -1.8220 n         1 MOL     -0.638912
    115 C36         6.4480   -1.4430   -1.5730 c3        1 MOL      0.334060
    116 C37         6.7540   -0.0050   -1.0300 c         1 MOL      0.154147
    117 O19         7.2750    0.1230    0.0780 o         1 MOL     -0.455992
    118 C38         7.3650   -1.8030   -2.7520 c3        1 MOL     -0.290662
    119 C39         8.8110   -1.4830   -2.5070 ca        1 MOL      0.331669
    120 C40         9.5330   -2.0250   -1.3950 ca        1 MOL     -0.348493
    121 C41         9.5950   -0.9160   -3.5340 ca        1 MOL     -0.348493
    122 C42        10.8780   -1.7270   -1.1810 ca        1 MOL      0.055620
    123 C43        10.9860   -0.6570   -3.3470 ca        1 MOL      0.055620
    124 C44        11.6550   -1.0440   -2.2260 ca        1 MOL     -0.294400
    125 H51         4.7730   -2.2680   -2.6460 hn        1 MOL      0.351217
    126 H52         6.8570   -2.1710   -0.8760 h1        1 MOL      0.065841
    127 H53         7.0620   -1.4410   -3.7330 hc        1 MOL      0.077033
    128 H54         7.3300   -2.8880   -2.8740 hc        1 MOL      0.077033
    129 H55         9.1190   -2.6580   -0.6210 ha        1 MOL      0.152236
    130 H56         9.0240   -0.6700   -4.4080 ha        1 MOL      0.152236
    131 H57        11.3880   -1.9890   -0.2620 ha        1 MOL      0.079560
    132 H58        11.4890   -0.2170   -4.1990 ha        1 MOL      0.079560
    133 H59        12.7060   -0.8590   -2.0660 ha        1 MOL      0.146668
    134 N12         6.3310    1.1020   -1.6690 n         1 MOL      0.108020
    135 C45         6.4150    2.4210   -1.1290 c3        1 MOL     -0.123068
    136 C46         5.6020    2.6880    0.1800 c         1 MOL      0.310022
    137 O20         5.7850    3.7050    0.7930 o         1 MOL     -0.513205
    138 C47         5.8230    3.3700   -2.2050 c3        1 MOL     -0.023771
    139 C48         6.0400    2.6290   -3.4910 c3        1 MOL     -0.066188
    140 C49         5.8010    1.1820   -3.0140 c3        1 MOL     -0.165419
    141 H60         7.4660    2.6430   -0.9420 h1        1 MOL      0.114785
    142 H61         4.7350    3.3330   -2.1190 hc        1 MOL      0.064036
    143 H62         6.0670    4.4230   -2.2850 hc        1 MOL      0.064036
    144 H63         5.3260    2.9430   -4.2480 hc        1 MOL      0.036377
    145 H64         7.0950    2.7510   -3.7200 hc        1 MOL      0.036377
    146 H65         4.7250    1.0550   -2.9580 h1        1 MOL      0.080171
    147 H66         6.2140    0.4580   -3.7070 h1        1 MOL      0.080171
    148 N13         4.7760    1.7550    0.6800 n         1 MOL     -0.061835
    149 C50         4.1870    1.7880    2.0770 c3        1 MOL      0.098712
    150 C51         5.0140    1.0060    3.1150 c         1 MOL      0.423211
    151 O21         5.2180    1.4690    4.2450 o         1 MOL     -0.556590
    152 C52         2.7530    1.2300    2.0660 c3        1 MOL     -0.134174
    153 C53         1.7920    2.0050    1.1020 c3        1 MOL     -0.130209
    154 C54         0.4260    1.4010    0.9100 c         1 MOL      0.774290
    155 O22         0.1370    0.2170    1.2700 o         1 MOL     -0.803912
    156 O23        -0.4650    2.0730    0.3690 o         1 MOL     -0.803912
    157 H67         4.7490    0.8800    0.1760 hn        1 MOL      0.027754
    158 H68         4.1750    2.7860    2.5000 h1        1 MOL      0.062641
    159 H69         2.3100    1.3210    3.0550 hc        1 MOL      0.063665
    160 H70         2.7960    0.1910    1.7430 hc        1 MOL      0.063665
    161 H71         2.1760    2.0780    0.0850 hc        1 MOL      0.068935
    162 H72         1.6850    3.0570    1.3630 hc        1 MOL      0.068935
    163 N14         5.4540   -0.2250    2.7750 n         1 MOL     -0.045289
    164 C55         6.3950   -0.9190    3.6220 c3        1 MOL     -0.186917
    165 H73         6.0720   -1.9520    3.7540 h1        1 MOL      0.067057
    166 H74         7.3820   -0.9040    3.1570 h1        1 MOL      0.067057
    167 H75         6.4430   -0.4260    4.5930 h1        1 MOL      0.067057
    168 H76         5.3600   -0.6010    1.8440 hn        1 MOL      0.109748
    169 Ca1        -2.1060   -0.0820   -0.2090 Ca        1 MOL      1.687610
    170 O24        -4.5070   -0.6710    1.2480 oh        1 MOL     -0.776051
    171 H77        -3.8070   -0.5860    1.8990 ho        1 MOL      0.385909
    172 H78        -5.1280    0.0190    1.4870 ho        1 MOL      0.385909
    173 O25        -2.0610   -0.4370    2.7070 oh        1 MOL     -0.776051
    174 H79        -2.3340    0.0630    3.4760 ho        1 MOL      0.385909
    175 H80        -1.2390   -0.0280    2.4390 ho        1 MOL      0.385909
@<TRIPOS>BOND
     1    1    2 1   
     2    1    4 1   
     3    1    5 1   
     4    1    6 1   
     5    2    3 2   
     6    2    7 1   
     7    7    8 1   
     8    7   15 1   
     9    8    9 1   
    10    8   11 1   
    11    8   16 1   
    12    9   10 2   
    13    9   19 1   
    14   11   12 1   
    15   11   17 1   
    16   11   18 1   
    17   12   13 1   
    18   12   14 1   
    19   19   20 1   
    20   19   24 1   
    21   20   21 1   
    22   20   23 1   
    23   20   25 1   
    24   21   22 2   
    25   21   29 1   
    26   23   26 1   
    27   23   27 1   
    28   23   28 1   
    29   29   30 1   
    30   29   37 1   
    31   30   31 1   
    32   30   33 1   
    33   30   38 1   
    34   31   32 2   
    35   31   41 1   
    36   33   34 1   
    37   33   39 1   
    38   33   40 1   
    39   34   35 1   
    40   34   36 1   
    41   41   42 1   
    42   41   45 1   
    43   42   43 1   
    44   42   46 1   
    45   42   47 1   
    46   43   44 2   
    47   43   48 1   
    48   48   49 1   
    49   48   56 1   
    50   49   50 1   
    51   49   52 1   
    52   49   57 1   
    53   50   51 2   
    54   50   62 1   
    55   52   53 1   
    56   52   58 1   
    57   52   59 1   
    58   53   54 1   
    59   53   55 2   
    60   54   60 1   
    61   54   61 1   
    62   62   63 1   
    63   62   66 1   
    64   63   64 1   
    65   63   67 1   
    66   63   68 1   
    67   64   65 2   
    68   64   69 1   
    69   69   70 1   
    70   69   76 1   
    71   70   71 1   
    72   70   73 1   
    73   70   77 1   
    74   71   72 2   
    75   71   83 1   
    76   73   74 1   
    77   73   75 1   
    78   73   78 1   
    79   74   80 1   
    80   74   81 1   
    81   74   82 1   
    82   75   79 1   
    83   83   84 1   
    84   83   91 1   
    85   84   85 1   
    86   84   87 1   
    87   84   92 1   
    88   85   86 2   
    89   85  102 1   
    90   87   88 1   
    91   87   89 1   
    92   87   93 1   
    93   88   90 1   
    94   88   94 1   
    95   88   95 1   
    96   89   96 1   
    97   89   97 1   
    98   89   98 1   
    99   90   99 1   
   100   90  100 1   
   101   90  101 1   
   102  102  103 1   
   103  102  110 1   
   104  103  104 1   
   105  103  106 1   
   106  103  111 1   
   107  104  105 2   
   108  104  114 1   
   109  106  107 1   
   110  106  112 1   
   111  106  113 1   
   112  107  108 1   
   113  107  109 1   
   114  114  115 1   
   115  114  125 1   
   116  115  116 1   
   117  115  118 1   
   118  115  126 1   
   119  116  117 2   
   120  116  134 1   
   121  118  119 1   
   122  118  127 1   
   123  118  128 1   
   124  119  120 ar  
   125  119  121 ar  
   126  120  122 ar  
   127  120  129 1   
   128  121  123 ar  
   129  121  130 1   
   130  122  124 ar  
   131  122  131 1   
   132  123  124 ar  
   133  123  132 1   
   134  124  133 1   
   135  134  135 1   
   136  134  140 1   
   137  135  136 1   
   138  135  138 1   
   139  135  141 1   
   140  136  137 2   
   141  136  148 1   
   142  138  139 1   
   143  138  142 1   
   144  138  143 1   
   145  139  140 1   
   146  139  144 1   
   147  139  145 1   
   148  140  146 1   
   149  140  147 1   
   150  148  149 1   
   151  148  157 1   
   152  149  150 1   
   153  149  152 1   
   154  149  158 1   
   155  150  151 2   
   156  150  163 1   
   157  152  153 1   
   158  152  159 1   
   159  152  160 1   
   160  153  154 1   
   161  153  161 1   
   162  153  162 1   
   163  154  155 1   
   164  154  156 1   
   165  163  164 1   
   166  163  168 1   
   167  164  165 1   
   168  164  166 1   
   169  164  167 1   
   170  170  171 1   
   171  170  172 1   
   172  173  174 1   
   173  173  175 1   
@<TRIPOS>SUBSTRUCTURE
     1 MOL         1 TEMP              0 ****  ****    0 ROOT
