@<TRIPOS>MOLECULE
MOL
  186   183     1     0     0
SMALL
resp


@<TRIPOS>ATOM
      1 C1          0.2930    2.6790   -5.5540 c3        1 MOL     -0.337293
      2 C2          0.5870    2.4870   -4.0470 c         1 MOL      0.707737
      3 O1         -0.2380    2.7590   -3.1760 o         1 MOL     -0.586409
      4 H1          0.7550    1.8700   -6.1200 hc        1 MOL      0.086071
      5 H2         -0.7850    2.6680   -5.7180 hc        1 MOL      0.086071
      6 H3          0.7020    3.6340   -5.8850 hc        1 MOL      0.086071
      7 N1          1.8330    2.1760   -3.7170 n         1 MOL     -0.548442
      8 C3          2.2330    1.8030   -2.3780 c3        1 MOL      0.255614
      9 C4          2.5700    3.0780   -1.5840 c         1 MOL      0.284522
     10 O2          3.6180    3.6600   -1.7880 o         1 MOL     -0.507262
     11 C5          3.4720    0.8450   -2.5140 c3        1 MOL     -0.220431
     12 C6          4.2240    0.5040   -1.2710 c         1 MOL      0.944366
     13 O3          5.2370   -0.2370   -1.3440 o         1 MOL     -0.773947
     14 O4          3.6160    0.5680   -0.2130 o         1 MOL     -0.773947
     15 H4          2.4530    2.0790   -4.5050 hn        1 MOL      0.302195
     16 H5          1.4860    1.2040   -1.8540 h1        1 MOL     -0.004221
     17 H6          4.2270    1.2870   -3.1790 hc        1 MOL      0.035711
     18 H7          3.2130   -0.1050   -2.9810 hc        1 MOL      0.035711
     19 N2          1.6150    3.5370   -0.7320 n         1 MOL     -0.022579
     20 C7          1.5950    4.8200    0.0100 c3        1 MOL      0.084733
     21 C8          2.3700    4.8660    1.2580 c         1 MOL      0.474081
     22 O5          2.2390    5.8720    2.0000 o         1 MOL     -0.581969
     23 C9          0.1750    5.2480    0.2220 c3        1 MOL     -0.090137
     24 C10        -0.7920    5.2510   -1.0160 c3        1 MOL      0.141161
     25 C11        -0.1980    6.0570   -2.1850 c3        1 MOL     -0.107594
     26 C12        -1.3950    6.5510   -3.0660 c3        1 MOL      0.140315
     27 N3         -0.8730    7.3620   -4.1640 n4        1 MOL     -0.478857
     28 H8          0.9010    2.8570   -0.5530 hn        1 MOL      0.188264
     29 H9          2.0010    5.6280   -0.5920 h1        1 MOL      0.017826
     30 H10         0.0760    6.2400    0.6510 hc        1 MOL      0.040146
     31 H11        -0.2290    4.4930    0.8940 hc        1 MOL      0.040146
     32 H12        -1.7240    5.7790   -0.8190 hc        1 MOL     -0.025232
     33 H13        -1.0660    4.2350   -1.3290 hc        1 MOL     -0.025232
     34 H14         0.4100    5.3470   -2.7580 hc        1 MOL      0.020741
     35 H15         0.4170    6.8660   -1.7960 hc        1 MOL      0.020741
     36 H16        -2.0100    7.1520   -2.4060 hx        1 MOL      0.065943
     37 H17        -1.9360    5.6420   -3.3490 hx        1 MOL      0.065943
     38 H18        -0.3540    8.0870   -3.6950 hn        1 MOL      0.353886
     39 H19        -0.2870    6.7960   -4.7650 hn        1 MOL      0.353886
     40 H20        -1.6530    7.6840   -4.7030 hn        1 MOL      0.353886
     41 N4          3.2230    3.8830    1.5460 n         1 MOL     -0.168769
     42 C13         4.2630    3.9850    2.6170 c3        1 MOL      0.100108
     43 C14         5.5820    3.3160    2.2570 c         1 MOL      0.436007
     44 O6          6.5130    3.5430    3.0030 o         1 MOL     -0.501759
     45 C15         3.6910    3.5740    3.9760 c3        1 MOL     -0.279312
     46 C16         3.0610    2.1870    4.0180 c         1 MOL      0.873081
     47 O7          2.4080    1.7720    4.9780 o         1 MOL     -0.680552
     48 O8          3.0840    1.4680    2.9980 o         1 MOL     -0.680552
     49 H21         3.2780    3.2010    0.8050 hn        1 MOL     -0.103182
     50 H22         4.6330    5.0000    2.7790 h1        1 MOL      0.071865
     51 H23         2.8600    4.2280    4.2460 hc        1 MOL      0.073606
     52 H24         4.4590    3.7010    4.7400 hc        1 MOL      0.073606
     53 N5          5.7360    2.5250    1.1310 n         1 MOL     -0.179492
     54 C17         7.0690    2.0380    0.6360 c3        1 MOL     -0.372463
     55 C18         7.5400    0.7670    1.2520 c         1 MOL      0.768413
     56 O9          8.5700    0.7060    1.8620 o         1 MOL     -0.588109
     57 H25         4.8860    2.2900    0.6280 hn        1 MOL      0.210309
     58 H26         7.8080    2.8310    0.7470 h1        1 MOL      0.142875
     59 H27         7.0050    1.8430   -0.4350 h1        1 MOL      0.142875
     60 N6          6.9610   -0.3860    0.8720 n         1 MOL     -0.404388
     61 C19         7.2730   -1.7350    1.4600 c3        1 MOL     -0.258393
     62 C20         7.1090   -2.8730    0.4270 c         1 MOL      0.662601
     63 O10         7.2980   -3.9810    0.8230 o         1 MOL     -0.556444
     64 C21         6.4130   -2.0430    2.6570 c3        1 MOL      0.105651
     65 C22         4.9080   -1.7580    2.4420 c         1 MOL      0.719646
     66 O11         4.2860   -2.4130    1.5710 o         1 MOL     -0.740299
     67 O12         4.2240   -1.0520    3.2300 o         1 MOL     -0.740299
     68 H28         6.2900   -0.3760    0.1140 hn        1 MOL      0.088824
     69 H29         8.3400   -1.7490    1.6830 h1        1 MOL      0.137683
     70 H30         6.6300   -1.5460    3.6010 hc        1 MOL      0.011967
     71 H31         6.5440   -3.0780    2.9850 hc        1 MOL      0.011967
     72 N7          6.8250   -2.6470   -0.8480 n         1 MOL     -0.486775
     73 C23         6.7030   -3.7490   -1.7940 c3        1 MOL     -0.070138
     74 C24         5.3920   -4.5150   -1.7730 c         1 MOL      0.516750
     75 O13         5.3270   -5.5600   -2.4780 o         1 MOL     -0.573179
     76 H32         6.6120   -1.7060   -1.1530 hn        1 MOL      0.377311
     77 H33         7.5730   -4.4010   -1.8070 h1        1 MOL      0.080159
     78 H34         6.7160   -3.2990   -2.7930 h1        1 MOL      0.080159
     79 N8          4.4320   -3.9760   -1.0110 n         1 MOL     -0.331836
     80 C25         3.0440   -4.5000   -0.9190 c3        1 MOL     -0.047124
     81 C26         1.9790   -3.4320   -0.9230 c         1 MOL      0.477872
     82 O14         2.1830   -2.3470   -0.3840 o         1 MOL     -0.619708
     83 C27         2.6810   -5.4080    0.3420 c3        1 MOL      0.523112
     84 C28         2.9250   -6.9040    0.2300 c3        1 MOL     -0.381227
     85 O15         3.4140   -4.9870    1.4330 oh        1 MOL     -0.593199
     86 H35         4.6150   -3.1530   -0.4600 hn        1 MOL      0.365475
     87 H36         2.9630   -5.1080   -1.8190 h1        1 MOL      0.055991
     88 H37         1.6080   -5.3240    0.4940 h1        1 MOL     -0.080160
     89 H38         3.7170   -4.0810    1.2760 ho        1 MOL      0.312259
     90 H39         2.5480   -7.5070    1.0510 hc        1 MOL      0.089833
     91 H40         2.5190   -7.2230   -0.7310 hc        1 MOL      0.089833
     92 H41         4.0150   -6.9240    0.2470 hc        1 MOL      0.089833
     93 N9          0.7950   -3.7250   -1.5480 n         1 MOL     -0.474605
     94 C29        -0.3490   -2.8250   -1.7340 c3        1 MOL      0.139367
     95 C30        -1.6100   -3.3600   -1.1620 c         1 MOL      0.387577
     96 O16        -2.0310   -4.4690   -1.4590 o         1 MOL     -0.537372
     97 C31        -0.5270   -2.5510   -3.2400 c3        1 MOL      0.253096
     98 C32         0.7440   -2.1240   -3.9670 c3        1 MOL      0.105062
     99 C33        -1.5030   -1.3310   -3.4130 c3        1 MOL     -0.498172
    100 C34         0.5710   -2.4740   -5.4990 c3        1 MOL     -0.272546
    101 H42         0.7790   -4.6430   -1.9730 hn        1 MOL      0.265495
    102 H43        -0.1170   -1.9000   -1.1990 h1        1 MOL      0.043206
    103 H44        -0.8740   -3.5040   -3.6330 hc        1 MOL     -0.024907
    104 H45         1.6390   -2.7000   -3.7200 hc        1 MOL      0.005364
    105 H46         0.8990   -1.0630   -3.7740 hc        1 MOL      0.005364
    106 H47        -1.7390   -1.2130   -4.4720 hc        1 MOL      0.092631
    107 H48        -2.4630   -1.6150   -2.9760 hc        1 MOL      0.092631
    108 H49        -1.1440   -0.3880   -3.0040 hc        1 MOL      0.092631
    109 H50         0.7750   -3.5350   -5.5830 hc        1 MOL      0.059259
    110 H51        -0.4690   -2.3660   -5.8160 hc        1 MOL      0.059259
    111 H52         1.2010   -1.8130   -6.1030 hc        1 MOL      0.059259
    112 N10        -2.2760   -2.5860   -0.2480 n         1 MOL     -0.069843
    113 C35        -3.6280   -2.9990    0.2640 c3        1 MOL     -0.046544
    114 C36        -4.7680   -2.4650   -0.5460 c         1 MOL      0.386991
    115 O17        -4.6000   -1.5200   -1.2860 o         1 MOL     -0.292325
    116 C37        -3.8660   -2.4750    1.6890 c3        1 MOL      0.104346
    117 C38        -2.7910   -2.9940    2.6480 c3        1 MOL     -0.487435
    118 O18        -3.8790   -1.1210    1.8330 oh        1 MOL     -0.331930
    119 H53        -1.8420   -1.7470    0.1110 hn        1 MOL      0.152335
    120 H54        -3.7490   -4.0910    0.3180 h1        1 MOL      0.095332
    121 H55        -4.7980   -2.8410    2.0950 h1        1 MOL      0.030351
    122 H56        -4.1160   -0.9350    2.7380 ho        1 MOL      0.377255
    123 H57        -2.9210   -4.0710    2.5850 hc        1 MOL      0.135504
    124 H58        -1.8370   -2.7000    2.2030 hc        1 MOL      0.135504
    125 H59        -3.0030   -2.6310    3.6610 hc        1 MOL      0.135504
    126 N11        -6.0000   -3.0270   -0.3130 n         1 MOL     -0.389714
    127 C39        -7.2390   -2.5110   -0.9680 c3        1 MOL     -0.136294
    128 C40        -7.4480   -1.0050   -0.6800 c         1 MOL      0.323774
    129 O19        -8.0870   -0.2960   -1.4730 o         1 MOL     -0.478706
    130 C41        -8.5080   -3.2820   -0.3960 c3        1 MOL      0.314342
    131 C42        -8.7180   -4.6610   -0.9120 c3        1 MOL     -0.347290
    132 O20        -8.3940   -3.4460    1.0080 oh        1 MOL     -0.622882
    133 H60        -6.1830   -3.6310    0.4830 hn        1 MOL      0.288972
    134 H61        -7.1550   -2.6850   -2.0440 h1        1 MOL      0.168099
    135 H62        -9.3250   -2.6380   -0.7040 h1        1 MOL      0.042950
    136 H63        -9.2200   -3.4370    1.5050 ho        1 MOL      0.397381
    137 H64        -8.8610   -4.6270   -1.9950 hc        1 MOL      0.102879
    138 H65        -7.8360   -5.2270   -0.6230 hc        1 MOL      0.102879
    139 H66        -9.5910   -5.1360   -0.4690 hc        1 MOL      0.102879
    140 N12        -7.0490   -0.4830    0.4500 n         1 MOL     -0.185223
    141 C43        -7.0670    0.9060    0.8820 c3        1 MOL     -0.053681
    142 C44        -6.0900    1.7510    0.1670 c         1 MOL      0.381947
    143 O21        -6.4960    2.8090   -0.2820 o         1 MOL     -0.490650
    144 C45        -7.0570    1.1530    2.4180 c3        1 MOL      0.010317
    145 C46        -7.9100    0.3720    3.4370 c3        1 MOL      0.035916
    146 C47        -7.6070    0.7910    4.8420 c3        1 MOL      0.042211
    147 C48        -8.7470    0.2710    5.7320 c3        1 MOL      0.061650
    148 N13       -10.0980    0.9130    5.5460 n4        1 MOL     -0.378302
    149 H67        -6.7060   -1.1310    1.1450 hn        1 MOL      0.151269
    150 H68        -8.0080    1.3430    0.5500 h1        1 MOL      0.095503
    151 H69        -7.3010    2.1980    2.6120 hc        1 MOL     -0.000598
    152 H70        -6.0280    1.0630    2.7750 hc        1 MOL     -0.000598
    153 H71        -7.6160   -0.6720    3.3060 hc        1 MOL     -0.011040
    154 H72        -8.9710    0.5300    3.2130 hc        1 MOL     -0.011040
    155 H73        -7.6350    1.8720    5.0060 hc        1 MOL      0.031721
    156 H74        -6.6540    0.3730    5.1790 hc        1 MOL      0.031721
    157 H75        -8.4340    0.3330    6.7770 hx        1 MOL      0.057558
    158 H76        -8.7730   -0.7980    5.5100 hx        1 MOL      0.057558
    159 H77        -9.9260    1.8830    5.3090 hn        1 MOL      0.288094
    160 H78       -10.6980    0.3930    4.9110 hn        1 MOL      0.288094
    161 H79       -10.5790    0.8750    6.4310 hn        1 MOL      0.288094
    162 N14        -4.8590    1.2470    0.0260 n         1 MOL     -0.082343
    163 C49        -3.8600    2.0200   -0.7290 c3        1 MOL     -0.113649
    164 C50        -4.2150    2.1620   -2.2340 c         1 MOL      0.419326
    165 O22        -4.0540    3.2300   -2.8500 o         1 MOL     -0.562741
    166 C51        -2.4740    1.3590   -0.6910 c3        1 MOL     -0.057955
    167 C52        -1.7900    1.3590    0.7450 c3        1 MOL      0.072103
    168 C53        -0.4450    0.6640    0.7100 c         1 MOL      0.715466
    169 O23        -0.2940   -0.5850    0.8130 o         1 MOL     -0.690247
    170 O24         0.5610    1.3910    0.7920 o         1 MOL     -0.690247
    171 H80        -4.6270    0.3330    0.3980 hn        1 MOL      0.081149
    172 H81        -3.8380    3.0430   -0.3490 h1        1 MOL      0.092841
    173 H82        -1.7580    1.7810   -1.4020 hc        1 MOL      0.034416
    174 H83        -2.6320    0.2850   -0.8390 hc        1 MOL      0.034416
    175 H84        -2.4590    0.8440    1.4480 hc        1 MOL     -0.067130
    176 H85        -1.6060    2.3620    1.1320 hc        1 MOL     -0.067130
    177 N15        -4.8180    1.0980   -2.7990 n         1 MOL     -0.016207
    178 C54        -5.3040    1.0090   -4.1660 c3        1 MOL     -0.258331
    179 H86        -4.7980    0.1900   -4.6800 h1        1 MOL      0.097626
    180 H87        -6.3780    0.8230   -4.1590 h1        1 MOL      0.097626
    181 H88        -5.1000    1.9450   -4.6870 h1        1 MOL      0.097626
    182 H89        -4.8400    0.2620   -2.2420 hn        1 MOL      0.111601
    183 Ca1         2.3280   -0.5160    1.5660 Ca        1 MOL      1.735223
    184 O25         0.9110   -0.2620    3.7720 oh        1 MOL     -0.912314
    185 H90         1.3460    0.2990    4.4030 ho        1 MOL      0.418460
    186 H91         0.3560   -0.8350    4.3040 ho        1 MOL      0.418460
@<TRIPOS>BOND
     1    1    2 1   
     2    1    4 1   
     3    1    5 1   
     4    1    6 1   
     5    2    3 2   
     6    2    7 1   
     7    7    8 1   
     8    7   15 1   
     9    8    9 1   
    10    8   11 1   
    11    8   16 1   
    12    9   10 2   
    13    9   19 1   
    14   11   12 1   
    15   11   17 1   
    16   11   18 1   
    17   12   13 1   
    18   12   14 1   
    19   19   20 1   
    20   19   28 1   
    21   20   21 1   
    22   20   23 1   
    23   20   29 1   
    24   21   22 2   
    25   21   41 1   
    26   23   24 1   
    27   23   30 1   
    28   23   31 1   
    29   24   25 1   
    30   24   32 1   
    31   24   33 1   
    32   25   26 1   
    33   25   34 1   
    34   25   35 1   
    35   26   27 1   
    36   26   36 1   
    37   26   37 1   
    38   27   38 1   
    39   27   39 1   
    40   27   40 1   
    41   41   42 1   
    42   41   49 1   
    43   42   43 1   
    44   42   45 1   
    45   42   50 1   
    46   43   44 2   
    47   43   53 1   
    48   45   46 1   
    49   45   51 1   
    50   45   52 1   
    51   46   47 1   
    52   46   48 1   
    53   53   54 1   
    54   53   57 1   
    55   54   55 1   
    56   54   58 1   
    57   54   59 1   
    58   55   56 2   
    59   55   60 1   
    60   60   61 1   
    61   60   68 1   
    62   61   62 1   
    63   61   64 1   
    64   61   69 1   
    65   62   63 2   
    66   62   72 1   
    67   64   65 1   
    68   64   70 1   
    69   64   71 1   
    70   65   66 1   
    71   65   67 1   
    72   72   73 1   
    73   72   76 1   
    74   73   74 1   
    75   73   77 1   
    76   73   78 1   
    77   74   75 2   
    78   74   79 1   
    79   79   80 1   
    80   79   86 1   
    81   80   81 1   
    82   80   83 1   
    83   80   87 1   
    84   81   82 2   
    85   81   93 1   
    86   83   84 1   
    87   83   85 1   
    88   83   88 1   
    89   84   90 1   
    90   84   91 1   
    91   84   92 1   
    92   85   89 1   
    93   93   94 1   
    94   93  101 1   
    95   94   95 1   
    96   94   97 1   
    97   94  102 1   
    98   95   96 2   
    99   95  112 1   
   100   97   98 1   
   101   97   99 1   
   102   97  103 1   
   103   98  100 1   
   104   98  104 1   
   105   98  105 1   
   106   99  106 1   
   107   99  107 1   
   108   99  108 1   
   109  100  109 1   
   110  100  110 1   
   111  100  111 1   
   112  112  113 1   
   113  112  119 1   
   114  113  114 1   
   115  113  116 1   
   116  113  120 1   
   117  114  115 2   
   118  114  126 1   
   119  116  117 1   
   120  116  118 1   
   121  116  121 1   
   122  117  123 1   
   123  117  124 1   
   124  117  125 1   
   125  118  122 1   
   126  126  127 1   
   127  126  133 1   
   128  127  128 1   
   129  127  130 1   
   130  127  134 1   
   131  128  129 2   
   132  128  140 1   
   133  130  131 1   
   134  130  132 1   
   135  130  135 1   
   136  131  137 1   
   137  131  138 1   
   138  131  139 1   
   139  132  136 1   
   140  140  141 1   
   141  140  149 1   
   142  141  142 1   
   143  141  144 1   
   144  141  150 1   
   145  142  143 2   
   146  142  162 1   
   147  144  145 1   
   148  144  151 1   
   149  144  152 1   
   150  145  146 1   
   151  145  153 1   
   152  145  154 1   
   153  146  147 1   
   154  146  155 1   
   155  146  156 1   
   156  147  148 1   
   157  147  157 1   
   158  147  158 1   
   159  148  159 1   
   160  148  160 1   
   161  148  161 1   
   162  162  163 1   
   163  162  171 1   
   164  163  164 1   
   165  163  166 1   
   166  163  172 1   
   167  164  165 2   
   168  164  177 1   
   169  166  167 1   
   170  166  173 1   
   171  166  174 1   
   172  167  168 1   
   173  167  175 1   
   174  167  176 1   
   175  168  169 1   
   176  168  170 1   
   177  177  178 1   
   178  177  182 1   
   179  178  179 1   
   180  178  180 1   
   181  178  181 1   
   182  184  185 1   
   183  184  186 1   
@<TRIPOS>SUBSTRUCTURE
     1 MOL         1 TEMP              0 ****  ****    0 ROOT
