@<TRIPOS>MOLECULE
MOL
  189   185     1     0     0
SMALL
resp


@<TRIPOS>ATOM
      1 C1         -0.1970    3.5250   -4.8780 c3        1 MOL     -0.293850
      2 C2          0.3020    3.1780   -3.4830 c         1 MOL      0.740504
      3 O1         -0.2560    3.5900   -2.4670 o         1 MOL     -0.599208
      4 H1         -1.2800    3.6470   -4.8560 hc        1 MOL      0.078829
      5 H2          0.2650    4.4540   -5.2100 hc        1 MOL      0.078829
      6 H3          0.0630    2.7210   -5.5680 hc        1 MOL      0.078829
      7 N1          1.5340    2.5380   -3.3490 n         1 MOL     -0.636483
      8 C3          2.1610    2.0100   -2.1090 c3        1 MOL      0.447625
      9 C4          2.6950    3.2990   -1.4130 c         1 MOL      0.246172
     10 O2          3.4740    4.0250   -1.9920 o         1 MOL     -0.525341
     11 C5          3.2140    0.9380   -2.4440 c3        1 MOL     -0.527875
     12 C6          3.9330    0.5260   -1.1430 c         1 MOL      0.996495
     13 O3          3.4750    0.8660   -0.0200 o         1 MOL     -0.761835
     14 O4          4.8750   -0.2900   -1.2920 o         1 MOL     -0.761835
     15 H4          2.0500    2.3820   -4.2020 hn        1 MOL      0.303950
     16 H5          1.4120    1.5240   -1.4800 h1        1 MOL     -0.084152
     17 H6          4.0470    1.4130   -2.9640 hc        1 MOL      0.128912
     18 H7          2.8070    0.1020   -3.0200 hc        1 MOL      0.128912
     19 N2          2.4290    3.5990   -0.1150 n         1 MOL     -0.032755
     20 C7          2.8640    4.8280    0.5300 c3        1 MOL      0.253647
     21 C8          3.9080    4.5570    1.5940 c         1 MOL      0.249527
     22 O5          4.6950    5.3970    2.0810 o         1 MOL     -0.520873
     23 C9          1.6710    5.5890    1.0020 c3        1 MOL     -0.085968
     24 C10         0.6730    5.9970   -0.1020 c3        1 MOL      0.068428
     25 C11         1.2850    7.0000   -1.1440 c3        1 MOL     -0.002209
     26 C12         1.1240    6.6060   -2.6470 c3        1 MOL     -0.069905
     27 N3         -0.2960    6.5890   -3.1320 n4        1 MOL     -0.320417
     28 H8          1.8140    3.0080    0.4240 hn        1 MOL      0.035189
     29 H9          3.4150    5.4990   -0.1450 h1        1 MOL      0.036875
     30 H10         2.1040    6.4860    1.4410 hc        1 MOL      0.007816
     31 H11         1.2480    4.9430    1.7790 hc        1 MOL      0.007816
     32 H12        -0.1880    6.5050    0.3270 hc        1 MOL      0.005637
     33 H13         0.3110    5.0770   -0.5460 hc        1 MOL      0.005637
     34 H14         2.3090    7.2790   -0.8970 hc        1 MOL      0.029018
     35 H15         0.6820    7.9080   -1.0990 hc        1 MOL      0.029018
     36 H16         1.6280    5.6540   -2.8060 hx        1 MOL      0.098989
     37 H17         1.7830    7.2010   -3.2870 hx        1 MOL      0.098989
     38 H18        -0.9230    5.9810   -2.6120 hn        1 MOL      0.306078
     39 H19        -0.7230    7.4940   -3.2450 hn        1 MOL      0.306078
     40 H20        -0.4540    6.3060   -4.0880 hn        1 MOL      0.306078
     41 N4          3.9060    3.2940    2.1840 n         1 MOL     -0.090265
     42 C13         4.7880    2.9180    3.2940 c3        1 MOL     -0.069923
     43 C14         6.0080    2.1720    2.8230 c         1 MOL      0.408703
     44 O6          7.0200    1.8980    3.4860 o         1 MOL     -0.536490
     45 C15         4.0660    2.2150    4.4660 c3        1 MOL     -0.133984
     46 C16         2.9310    1.2430    4.0300 c         1 MOL      0.620146
     47 O7          2.9720    0.6960    2.9310 o         1 MOL     -0.648143
     48 O8          2.1210    0.8490    4.9040 o         1 MOL     -0.648143
     49 H21         3.2590    2.6630    1.7240 hn        1 MOL      0.135281
     50 H22         5.1460    3.8430    3.7460 h1        1 MOL      0.129249
     51 H23         3.6180    3.0010    5.0800 hc        1 MOL      0.055540
     52 H24         4.8120    1.7800    5.1310 hc        1 MOL      0.055540
     53 N5          5.9740    1.8500    1.5170 n         1 MOL     -0.092034
     54 C17         7.1670    1.4680    0.7480 c3        1 MOL     -0.304143
     55 C18         7.3420   -0.0270    0.7080 c         1 MOL      0.587019
     56 O9          8.4470   -0.4890    0.3620 o         1 MOL     -0.614991
     57 H25         5.0770    1.7450    1.0700 hn        1 MOL      0.075564
     58 H26         8.1440    1.7690    1.1290 h1        1 MOL      0.139036
     59 H27         7.0620    1.8410   -0.2770 h1        1 MOL      0.139036
     60 N6          6.4220   -0.9240    1.1290 n         1 MOL     -0.199482
     61 C19         6.6340   -2.3310    1.4180 c3        1 MOL     -0.134474
     62 C20         6.5760   -3.2070    0.2120 c         1 MOL      0.489121
     63 O10         6.6790   -4.4540    0.3280 o         1 MOL     -0.564823
     64 C21         5.7190   -2.8920    2.4840 c3        1 MOL     -0.048540
     65 C22         4.1980   -2.6980    2.3260 c         1 MOL      0.658896
     66 O11         3.7490   -2.4060    1.1860 o         1 MOL     -0.667864
     67 O12         3.4480   -2.9690    3.3070 o         1 MOL     -0.667864
     68 H28         5.5400   -0.5560    1.4410 hn        1 MOL      0.179422
     69 H29         7.6750   -2.5520    1.6650 h1        1 MOL      0.129341
     70 H30         6.0490   -2.4360    3.4160 hc        1 MOL      0.041589
     71 H31         5.9420   -3.9450    2.6420 hc        1 MOL      0.041589
     72 N7          6.4010   -2.6910   -0.9980 n         1 MOL     -0.285377
     73 C23         6.3080   -3.5370   -2.2260 c3        1 MOL     -0.201732
     74 C24         4.9060   -4.2230   -2.2510 c         1 MOL      0.616797
     75 O13         4.7050   -5.0920   -3.0800 o         1 MOL     -0.578024
     76 H32         6.1940   -1.7070   -1.0990 hn        1 MOL      0.298704
     77 H33         7.1170   -4.2680   -2.1280 h1        1 MOL      0.110121
     78 H34         6.5070   -2.9220   -3.1010 h1        1 MOL      0.110121
     79 N8          3.9220   -3.7040   -1.4920 n         1 MOL     -0.332113
     80 C25         2.4960   -4.2520   -1.6640 c3        1 MOL     -0.325624
     81 C26         1.4590   -3.1160   -1.5630 c         1 MOL      0.866712
     82 O14         1.6260   -2.1980   -0.7320 o         1 MOL     -0.779640
     83 C27         2.1120   -5.3430   -0.6320 c3        1 MOL      0.527195
     84 C28         2.3790   -6.7240   -1.0660 c3        1 MOL     -0.601152
     85 O15         2.8900   -5.0670    0.5400 oh        1 MOL     -0.635728
     86 H35         4.0920   -3.0590   -0.7240 hn        1 MOL      0.231693
     87 H36         2.4410   -4.6770   -2.6710 h1        1 MOL      0.143481
     88 H37         1.0760   -5.1640   -0.3530 h1        1 MOL     -0.039137
     89 H38         3.2290   -4.1600    0.5030 ho        1 MOL      0.449377
     90 H39         2.1000   -7.3370   -0.2130 hc        1 MOL      0.160056
     91 H40         1.8970   -6.9020   -2.0260 hc        1 MOL      0.160056
     92 H41         3.4550   -6.8000   -1.1800 hc        1 MOL      0.160056
     93 N9          0.5490   -3.1630   -2.5650 n         1 MOL     -0.670845
     94 C29        -0.6050   -2.3040   -2.6020 c3        1 MOL      0.095994
     95 C30        -1.8340   -2.8780   -1.8150 c         1 MOL      0.481232
     96 O16        -2.0690   -4.0710   -2.0370 o         1 MOL     -0.554444
     97 C31        -1.0450   -1.9670   -4.0170 c3        1 MOL      0.341980
     98 C32         0.2080   -1.4390   -4.8510 c3        1 MOL     -0.047686
     99 C33        -2.0670   -0.8420   -3.9660 c3        1 MOL     -0.452290
    100 C34         0.0050   -1.4470   -6.3870 c3        1 MOL     -0.220335
    101 H42         0.6070   -3.8990   -3.2500 hn        1 MOL      0.317959
    102 H43        -0.4400   -1.4080   -2.0150 h1        1 MOL      0.055157
    103 H44        -1.4710   -2.8900   -4.4080 hc        1 MOL     -0.031877
    104 H45         1.1630   -1.9400   -4.6480 hc        1 MOL      0.041377
    105 H46         0.3680   -0.4150   -4.5280 hc        1 MOL      0.041377
    106 H47        -1.9880   -0.0960   -4.7520 hc        1 MOL      0.078423
    107 H48        -3.0380   -1.3240   -4.0720 hc        1 MOL      0.078423
    108 H49        -2.0450   -0.2520   -3.0520 hc        1 MOL      0.078423
    109 H50        -0.3850   -2.3900   -6.7760 hc        1 MOL      0.054994
    110 H51        -0.7820   -0.7230   -6.6140 hc        1 MOL      0.054994
    111 H52         0.9140   -1.2550   -6.9590 hc        1 MOL      0.054994
    112 N10        -2.4600   -2.0620   -0.9730 n         1 MOL     -0.183350
    113 C35        -3.7410   -2.4410   -0.3210 c3        1 MOL     -0.009876
    114 C36        -4.9420   -1.7970   -1.0030 c         1 MOL      0.252134
    115 O17        -4.9320   -0.8220   -1.7090 o         1 MOL     -0.297115
    116 C37        -3.6320   -2.0390    1.1670 c3        1 MOL      0.313065
    117 C38        -2.4660   -2.6690    1.8890 c3        1 MOL     -0.736954
    118 O18        -3.4060   -0.6490    1.3350 oh        1 MOL     -0.397767
    119 H53        -2.0830   -1.1460   -0.8180 hn        1 MOL      0.192172
    120 H54        -3.9150   -3.5160   -0.3930 h1        1 MOL      0.068489
    121 H55        -4.5350   -2.3440    1.7040 h1        1 MOL      0.018046
    122 H56        -2.4960   -0.6540    1.0350 ho        1 MOL      0.321495
    123 H57        -1.4730   -2.3740    1.5270 hc        1 MOL      0.192776
    124 H58        -2.5960   -2.3070    2.9020 hc        1 MOL      0.192776
    125 H59        -2.5160   -3.7490    1.7950 hc        1 MOL      0.192776
    126 N11        -6.0910   -2.3750   -0.6480 n         1 MOL     -0.141293
    127 C39        -7.4450   -1.9110   -0.9680 c3        1 MOL     -0.314861
    128 C40        -7.7410   -0.5940   -0.3830 c         1 MOL      0.417279
    129 O19        -8.2860    0.3190   -0.9550 o         1 MOL     -0.430385
    130 C41        -8.4930   -2.8600   -0.4340 c3        1 MOL      0.353914
    131 C42        -8.4200   -4.1860   -1.2370 c3        1 MOL     -0.584175
    132 O20        -8.2110   -3.1770    0.8610 oh        1 MOL     -0.616124
    133 H60        -5.9570   -3.2680   -0.2000 hn        1 MOL      0.217555
    134 H61        -7.5080   -1.9190   -2.0540 h1        1 MOL      0.189329
    135 H62        -9.4770   -2.4060   -0.5120 h1        1 MOL      0.049838
    136 H63        -9.0440   -3.5050    1.2100 ho        1 MOL      0.409721
    137 H64        -7.4320   -4.5930   -1.0470 hc        1 MOL      0.169297
    138 H65        -9.1700   -4.8370   -0.7770 hc        1 MOL      0.169297
    139 H66        -8.5200   -3.8910   -2.2830 hc        1 MOL      0.169297
    140 N12        -7.2110   -0.3520    0.8900 n         1 MOL     -0.349565
    141 C43        -7.1210    0.9700    1.4520 c3        1 MOL     -0.008427
    142 C44        -6.3610    2.0100    0.6410 c         1 MOL      0.245240
    143 O21        -6.7470    3.1470    0.4970 o         1 MOL     -0.476418
    144 C45        -6.5200    0.8300    2.8600 c3        1 MOL      0.056814
    145 C46        -7.5120    0.1520    3.7960 c3        1 MOL     -0.075967
    146 C47        -6.9480    0.1030    5.2130 c3        1 MOL      0.102235
    147 C48        -7.9230   -0.3960    6.2350 c3        1 MOL     -0.052932
    148 N13        -7.2510   -0.9700    7.4240 n4        1 MOL     -0.285867
    149 H67        -6.9140   -1.1510    1.4440 hn        1 MOL      0.278373
    150 H68        -8.1450    1.3100    1.5430 h1        1 MOL      0.098832
    151 H69        -6.4400    1.8250    3.2880 hc        1 MOL      0.020316
    152 H70        -5.5370    0.3610    2.8180 hc        1 MOL      0.020316
    153 H71        -7.6730   -0.8490    3.4030 hc        1 MOL      0.006029
    154 H72        -8.4290    0.7360    3.7830 hc        1 MOL      0.006029
    155 H73        -6.5260    1.0710    5.4800 hc        1 MOL      0.011679
    156 H74        -6.0010   -0.4450    5.1870 hc        1 MOL      0.011679
    157 H75        -8.4370   -1.2800    5.8570 hx        1 MOL      0.103401
    158 H76        -8.6190    0.3840    6.5540 hx        1 MOL      0.103401
    159 H77        -6.6230   -0.2490    7.7730 hn        1 MOL      0.296232
    160 H78        -7.9830   -1.2990    8.0260 hn        1 MOL      0.296232
    161 H79        -6.6420   -1.7260    7.1300 hn        1 MOL      0.296232
    162 N14        -5.1810    1.6040    0.0920 n         1 MOL      0.491807
    163 C49        -4.2340    2.4760   -0.5990 c3        1 MOL     -0.387498
    164 C50        -4.7300    2.7680   -2.0840 c         1 MOL      0.573283
    165 O22        -4.8950    3.9010   -2.4430 o         1 MOL     -0.556781
    166 C51        -2.8280    1.8640   -0.6980 c3        1 MOL      0.486285
    167 C52        -1.9100    2.2500    0.5200 c3        1 MOL     -0.286202
    168 C53        -0.6320    1.3670    0.6920 c         1 MOL      0.812275
    169 O23         0.3790    1.7650    1.3150 o         1 MOL     -0.672990
    170 O24        -0.6770    0.2050    0.2550 o         1 MOL     -0.672990
    171 H80        -4.8260    0.7520    0.5000 hn        1 MOL     -0.279824
    172 H81        -4.1880    3.4250   -0.0610 h1        1 MOL      0.078689
    173 H82        -2.3370    2.3260   -1.5610 hc        1 MOL     -0.132732
    174 H83        -2.9020    0.7770   -0.7320 hc        1 MOL     -0.132732
    175 H84        -2.5370    2.0430    1.4040 hc        1 MOL      0.035015
    176 H85        -1.7440    3.3180    0.4510 hc        1 MOL      0.035015
    177 N15        -5.1930    1.7400   -2.7930 n         1 MOL     -0.323966
    178 C54        -6.0170    1.9990   -4.0150 c3        1 MOL     -0.103996
    179 H86        -7.0710    2.0280   -3.7430 h1        1 MOL      0.070091
    180 H87        -5.7290    2.9560   -4.4520 h1        1 MOL      0.070091
    181 H88        -5.8520    1.2030   -4.7410 h1        1 MOL      0.070091
    182 H89        -5.1850    0.8090   -2.3970 hn        1 MOL      0.185604
    183 Ca1         1.7960   -0.5570    1.2610 Ca        1 MOL      1.729300
    184 O25         1.0920   -3.0830    2.2090 oh        1 MOL     -0.870662
    185 H90         1.9470   -3.3060    2.5750 ho        1 MOL      0.400874
    186 H91         0.4720   -3.5990    2.7310 ho        1 MOL      0.400874
    187 O26        -0.2810   -0.8930    3.1830 oh        1 MOL     -0.870662
    188 H92        -0.1880   -0.4120    4.0100 ho        1 MOL      0.400874
    189 H93        -0.6680   -1.7300    3.4350 ho        1 MOL      0.400874
@<TRIPOS>BOND
     1    1    2 1   
     2    1    4 1   
     3    1    5 1   
     4    1    6 1   
     5    2    3 2   
     6    2    7 1   
     7    7    8 1   
     8    7   15 1   
     9    8    9 1   
    10    8   11 1   
    11    8   16 1   
    12    9   10 2   
    13    9   19 1   
    14   11   12 1   
    15   11   17 1   
    16   11   18 1   
    17   12   13 1   
    18   12   14 1   
    19   19   20 1   
    20   19   28 1   
    21   20   21 1   
    22   20   23 1   
    23   20   29 1   
    24   21   22 2   
    25   21   41 1   
    26   23   24 1   
    27   23   30 1   
    28   23   31 1   
    29   24   25 1   
    30   24   32 1   
    31   24   33 1   
    32   25   26 1   
    33   25   34 1   
    34   25   35 1   
    35   26   27 1   
    36   26   36 1   
    37   26   37 1   
    38   27   38 1   
    39   27   39 1   
    40   27   40 1   
    41   41   42 1   
    42   41   49 1   
    43   42   43 1   
    44   42   45 1   
    45   42   50 1   
    46   43   44 2   
    47   43   53 1   
    48   45   46 1   
    49   45   51 1   
    50   45   52 1   
    51   46   47 1   
    52   46   48 1   
    53   53   54 1   
    54   53   57 1   
    55   54   55 1   
    56   54   58 1   
    57   54   59 1   
    58   55   56 2   
    59   55   60 1   
    60   60   61 1   
    61   60   68 1   
    62   61   62 1   
    63   61   64 1   
    64   61   69 1   
    65   62   63 2   
    66   62   72 1   
    67   64   65 1   
    68   64   70 1   
    69   64   71 1   
    70   65   66 1   
    71   65   67 1   
    72   72   73 1   
    73   72   76 1   
    74   73   74 1   
    75   73   77 1   
    76   73   78 1   
    77   74   75 2   
    78   74   79 1   
    79   79   80 1   
    80   79   86 1   
    81   80   81 1   
    82   80   83 1   
    83   80   87 1   
    84   81   82 2   
    85   81   93 1   
    86   83   84 1   
    87   83   85 1   
    88   83   88 1   
    89   84   90 1   
    90   84   91 1   
    91   84   92 1   
    92   85   89 1   
    93   93   94 1   
    94   93  101 1   
    95   94   95 1   
    96   94   97 1   
    97   94  102 1   
    98   95   96 2   
    99   95  112 1   
   100   97   98 1   
   101   97   99 1   
   102   97  103 1   
   103   98  100 1   
   104   98  104 1   
   105   98  105 1   
   106   99  106 1   
   107   99  107 1   
   108   99  108 1   
   109  100  109 1   
   110  100  110 1   
   111  100  111 1   
   112  112  113 1   
   113  112  119 1   
   114  113  114 1   
   115  113  116 1   
   116  113  120 1   
   117  114  115 2   
   118  114  126 1   
   119  116  117 1   
   120  116  118 1   
   121  116  121 1   
   122  117  123 1   
   123  117  124 1   
   124  117  125 1   
   125  118  122 1   
   126  126  127 1   
   127  126  133 1   
   128  127  128 1   
   129  127  130 1   
   130  127  134 1   
   131  128  129 2   
   132  128  140 1   
   133  130  131 1   
   134  130  132 1   
   135  130  135 1   
   136  131  137 1   
   137  131  138 1   
   138  131  139 1   
   139  132  136 1   
   140  140  141 1   
   141  140  149 1   
   142  141  142 1   
   143  141  144 1   
   144  141  150 1   
   145  142  143 2   
   146  142  162 1   
   147  144  145 1   
   148  144  151 1   
   149  144  152 1   
   150  145  146 1   
   151  145  153 1   
   152  145  154 1   
   153  146  147 1   
   154  146  155 1   
   155  146  156 1   
   156  147  148 1   
   157  147  157 1   
   158  147  158 1   
   159  148  159 1   
   160  148  160 1   
   161  148  161 1   
   162  162  163 1   
   163  162  171 1   
   164  163  164 1   
   165  163  166 1   
   166  163  172 1   
   167  164  165 2   
   168  164  177 1   
   169  166  167 1   
   170  166  173 1   
   171  166  174 1   
   172  167  168 1   
   173  167  175 1   
   174  167  176 1   
   175  168  169 1   
   176  168  170 1   
   177  177  178 1   
   178  177  182 1   
   179  178  179 1   
   180  178  180 1   
   181  178  181 1   
   182  184  185 1   
   183  184  186 1   
   184  187  188 1   
   185  187  189 1   
@<TRIPOS>SUBSTRUCTURE
     1 MOL         1 TEMP              0 ****  ****    0 ROOT
