@<TRIPOS>MOLECULE
MOL
  183   181     1     0     0
SMALL
resp


@<TRIPOS>ATOM
      1 C1          0.5020   -2.4630    6.0270 c3        1 MOL     -0.395162
      2 C2          0.7710   -2.2940    4.5050 c         1 MOL      0.819790
      3 O1          0.2270   -2.9940    3.7120 o         1 MOL     -0.607326
      4 H1          1.4180   -2.2620    6.5820 hc        1 MOL      0.088323
      5 H2         -0.2720   -1.7610    6.3410 hc        1 MOL      0.088323
      6 H3          0.1720   -3.4820    6.2280 hc        1 MOL      0.088323
      7 N1          1.8380   -1.5820    4.2030 n         1 MOL     -0.657351
      8 C3          2.4540   -1.6530    2.9050 c3        1 MOL      0.182323
      9 C4          2.9250   -3.1470    2.6610 c         1 MOL      0.607815
     10 O2          3.5840   -3.7470    3.4640 o         1 MOL     -0.606553
     11 C5          3.7420   -0.7110    2.8200 c3        1 MOL      0.056124
     12 C6          4.3850   -0.8550    1.4280 c         1 MOL      0.468133
     13 O3          5.6070   -0.9690    1.3780 o         1 MOL     -0.632273
     14 O4          3.6970   -1.0720    0.3710 o         1 MOL     -0.632273
     15 H4          2.3610   -1.0250    4.8640 hn        1 MOL      0.305376
     16 H5          1.8000   -1.3380    2.0960 h1        1 MOL     -0.040905
     17 H6          4.4560   -1.0090    3.5750 hc        1 MOL     -0.016207
     18 H7          3.4410    0.3170    3.0220 hc        1 MOL     -0.016207
     19 N2          2.6960   -3.5890    1.4160 n         1 MOL     -0.089916
     20 C7          2.9270   -4.9770    0.9710 c3        1 MOL     -0.081899
     21 C8          3.8550   -5.0690   -0.2150 c         1 MOL      0.495941
     22 O5          4.4970   -6.0670   -0.4490 o         1 MOL     -0.565279
     23 C9          1.5370   -5.7030    0.8160 c3        1 MOL      0.284693
     24 C10         0.4750   -5.2880    1.7730 c3        1 MOL      0.021883
     25 C11         1.8990   -7.2560    0.9270 c3        1 MOL     -0.220295
     26 C12        -0.8200   -6.1170    1.6440 c3        1 MOL     -0.144803
     27 H8          2.1550   -3.0160    0.7750 hn        1 MOL     -0.065329
     28 H9          3.4620   -5.3850    1.8350 h1        1 MOL      0.053574
     29 H10         1.2080   -5.5300   -0.2130 hc        1 MOL     -0.033504
     30 H11         0.2820   -4.2170    1.6900 hc        1 MOL      0.018412
     31 H12         0.9500   -5.4720    2.7290 hc        1 MOL      0.018412
     32 H13         2.0280   -7.5580    1.9650 hc        1 MOL      0.025565
     33 H14         1.0120   -7.7930    0.5820 hc        1 MOL      0.025565
     34 H15         2.7540   -7.5890    0.3430 hc        1 MOL      0.025565
     35 H16        -0.7620   -7.1680    1.9270 hc        1 MOL      0.024955
     36 H17        -1.6450   -5.7180    2.2380 hc        1 MOL      0.024955
     37 H18        -1.2140   -6.1870    0.6230 hc        1 MOL      0.024955
     38 N3          3.9270   -4.0500   -1.0510 n         1 MOL     -0.305225
     39 C13         4.6510   -4.0410   -2.3080 c3        1 MOL     -0.048723
     40 C14         6.0680   -3.4190   -2.1710 c         1 MOL      0.369719
     41 O6          6.8360   -3.4330   -3.1280 o         1 MOL     -0.571528
     42 C15         3.9200   -3.4020   -3.5300 c3        1 MOL     -0.051288
     43 C16         3.4140   -2.0220   -3.1560 c         1 MOL      0.735101
     44 O7          4.1600   -1.1620   -2.6370 o         1 MOL     -0.765195
     45 O8          2.1850   -1.7960   -3.1670 o         1 MOL     -0.765195
     46 H19         3.1070   -3.4500   -1.0430 hn        1 MOL      0.329084
     47 H20         4.8340   -5.0490   -2.6850 h1        1 MOL      0.088432
     48 H21         3.1140   -4.0410   -3.8880 hc        1 MOL      0.023384
     49 H22         4.4530   -3.3250   -4.4840 hc        1 MOL      0.023384
     50 N4          6.4300   -2.7230   -1.1000 n         1 MOL     -0.017401
     51 C17         7.6900   -2.0710   -0.7600 c3        1 MOL     -0.553519
     52 C18         7.8920   -0.5750   -1.2050 c         1 MOL      0.673467
     53 O9          8.9540    0.0140   -1.0050 o         1 MOL     -0.649084
     54 H23         5.7340   -2.7280   -0.3650 hn        1 MOL      0.181391
     55 H24         8.4780   -2.4870   -1.3850 h1        1 MOL      0.191569
     56 H25         7.7210   -2.1550    0.3200 h1        1 MOL      0.191569
     57 N5          6.9010    0.1220   -1.7230 n         1 MOL     -0.212749
     58 C19         7.0880    1.4830   -2.2650 c3        1 MOL      0.031794
     59 C20         7.0990    2.5440   -1.1700 c         1 MOL      0.492152
     60 O10         7.4710    3.7220   -1.4640 o         1 MOL     -0.605231
     61 C21         6.0360    1.7910   -3.3800 c3        1 MOL     -0.415262
     62 C22         4.6020    1.7510   -2.8370 c         1 MOL      0.824399
     63 O11         3.6080    1.6180   -3.6050 o         1 MOL     -0.731426
     64 O12         4.3770    1.8520   -1.6230 o         1 MOL     -0.731426
     65 H26         5.9730   -0.2480   -1.9060 hn        1 MOL      0.209767
     66 H27         8.1200    1.4420   -2.6480 h1        1 MOL      0.069184
     67 H28         6.2200    0.9640   -4.0520 hc        1 MOL      0.109876
     68 H29         6.2590    2.8080   -3.7130 hc        1 MOL      0.109876
     69 N6          6.9170    2.1570    0.0820 n         1 MOL     -0.232705
     70 C23         7.0140    3.0470    1.2830 c3        1 MOL     -0.116905
     71 C24         5.6750    3.6930    1.6910 c         1 MOL      0.560934
     72 O13         5.6870    4.3600    2.6940 o         1 MOL     -0.592162
     73 H30         6.5190    1.2430    0.1990 hn        1 MOL      0.213726
     74 H31         7.6970    3.8500    0.9870 h1        1 MOL      0.085146
     75 H32         7.4620    2.5680    2.1540 h1        1 MOL      0.085146
     76 N7          4.5430    3.4320    0.9920 n         1 MOL     -0.292117
     77 C25         3.2770    4.0640    1.3430 c3        1 MOL     -0.084322
     78 C26         2.1010    3.0710    1.1260 c         1 MOL      0.766879
     79 O14         2.1310    2.2060    0.2720 o         1 MOL     -0.773023
     80 C27         3.0260    5.2770    0.4690 c3        1 MOL      0.008641
     81 C28         3.9800    6.4590    0.6950 c3        1 MOL     -0.213182
     82 C29         3.5190    7.7210    0.0700 c         1 MOL      0.636344
     83 N8          4.1990    8.2010   -1.0030 n         1 MOL     -0.800640
     84 O15         2.5220    8.3300    0.5580 o         1 MOL     -0.570534
     85 H33         4.5490    2.9010    0.1310 hn        1 MOL      0.217676
     86 H34         3.2530    4.2530    2.4190 h1        1 MOL      0.074373
     87 H35         1.9980    5.6010    0.6530 hc        1 MOL      0.039525
     88 H36         3.0030    4.9910   -0.5830 hc        1 MOL      0.039525
     89 H37         5.0120    6.2040    0.4210 hc        1 MOL      0.075090
     90 H38         4.0110    6.5710    1.7790 hc        1 MOL      0.075090
     91 H39         5.0020    7.7050   -1.3520 hn        1 MOL      0.361474
     92 H40         3.9590    9.0470   -1.4840 hn        1 MOL      0.361474
     93 N9          1.0790    3.2190    1.9090 n         1 MOL     -0.489184
     94 C30        -0.0500    2.3160    1.9610 c3        1 MOL     -0.019116
     95 C31        -1.2590    2.8290    1.1530 c         1 MOL      0.460099
     96 O16        -1.8700    3.7970    1.5970 o         1 MOL     -0.565580
     97 C32        -0.4890    2.1720    3.4450 c3        1 MOL      0.503932
     98 C33        -1.5190    0.9620    3.5140 c3        1 MOL     -0.374123
     99 C34         0.5850    1.9870    4.5320 c3        1 MOL     -0.374123
    100 H41         1.1290    3.8750    2.6870 hn        1 MOL      0.258663
    101 H42         0.2930    1.3460    1.5970 h1        1 MOL      0.142048
    102 H43        -0.9720    3.0670    3.8100 hc        1 MOL     -0.081354
    103 H44        -0.9810    0.0120    3.4450 hc        1 MOL      0.060620
    104 H45        -2.0330    1.0570    4.4660 hc        1 MOL      0.060620
    105 H46        -2.3820    1.2240    2.9040 hc        1 MOL      0.060620
    106 H47         1.2120    1.1090    4.3490 hc        1 MOL      0.060620
    107 H48         1.1950    2.8860    4.5260 hc        1 MOL      0.060620
    108 H49         0.0350    1.8740    5.4630 hc        1 MOL      0.060620
    109 N10        -1.6310    2.2510   -0.0120 n         1 MOL     -0.224624
    110 C35        -2.7460    2.5000   -0.8350 c3        1 MOL      0.073075
    111 C36        -4.0290    2.2090   -0.0310 c         1 MOL      0.371297
    112 O17        -3.9940    1.3900    0.8910 o         1 MOL     -0.309052
    113 C37        -2.6700    1.5560   -2.0550 c3        1 MOL     -0.284588
    114 C38        -3.7230    2.1050   -3.0240 c         1 MOL      0.645420
    115 N11        -3.7290    3.3400   -3.3360 n         1 MOL     -0.727791
    116 O18        -4.7690    1.4730   -3.2440 o         1 MOL     -0.530683
    117 H50        -1.1610    1.3690   -0.1540 hn        1 MOL      0.147029
    118 H51        -2.7760    3.5410   -1.1370 h1        1 MOL      0.041414
    119 H52        -2.8750    0.5510   -1.6810 hc        1 MOL      0.060495
    120 H53        -1.6850    1.6010   -2.5190 hc        1 MOL      0.060495
    121 H54        -2.9530    3.9030   -3.0170 hn        1 MOL      0.358918
    122 H55        -4.3580    3.6240   -4.0720 hn        1 MOL      0.358918
    123 N12        -5.1670    2.7050   -0.5650 n         1 MOL     -0.477224
    124 C39        -6.4420    2.1150   -0.0670 c3        1 MOL      0.147346
    125 C40        -6.5970    0.5910   -0.0920 c         1 MOL      0.581790
    126 O19        -7.1000    0.0010    0.8410 o         1 MOL     -0.541275
    127 C41        -7.6560    2.7300   -0.7630 c3        1 MOL     -0.105743
    128 C42        -8.9620    2.2790   -0.3290 ca        1 MOL      0.133557
    129 C43        -9.5540    2.9400    0.7440 ca        1 MOL     -0.294397
    130 C44        -9.6340    1.2470   -0.9700 ca        1 MOL     -0.294397
    131 C45       -10.7630    2.4860    1.2170 ca        1 MOL     -0.097300
    132 C46       -10.8500    0.7960   -0.5520 ca        1 MOL     -0.097300
    133 C47       -11.4610    1.4840    0.4570 ca        1 MOL      0.228591
    134 O20       -12.7240    1.1220    0.7250 oh        1 MOL     -0.523931
    135 H56        -5.2280    3.2690   -1.3980 hn        1 MOL      0.278991
    136 H57        -6.5800    2.3220    0.9960 h1        1 MOL      0.050947
    137 H58        -7.5910    2.6490   -1.8460 hc        1 MOL      0.038225
    138 H59        -7.6430    3.7810   -0.4970 hc        1 MOL      0.038225
    139 H60        -8.9700    3.7350    1.1850 ha        1 MOL      0.158743
    140 H61        -9.1830    0.7800   -1.8300 ha        1 MOL      0.158743
    141 H62       -11.3100    2.9350    2.0320 ha        1 MOL      0.105851
    142 H63       -11.4350    0.1710   -1.2070 ha        1 MOL      0.105851
    143 H64       -12.9900    0.4460    0.0870 ho        1 MOL      0.384929
    144 N13        -6.0790   -0.1560   -1.1220 n         1 MOL     -0.345071
    145 C48        -6.3420   -1.5640   -1.1030 c3        1 MOL      0.047010
    146 C49        -5.4840   -2.3540   -0.1090 c         1 MOL      0.281965
    147 O21        -5.8320   -3.4340    0.3730 o         1 MOL     -0.518002
    148 C50        -6.0720   -2.1750   -2.4750 c3        1 MOL     -0.009562
    149 C51        -7.3270   -2.0770   -3.3650 c3        1 MOL     -0.173278
    150 C52        -7.0350   -2.8280   -4.7040 c         1 MOL      0.680382
    151 O22        -7.5280   -3.9500   -4.9280 o         1 MOL     -0.730102
    152 O23        -6.3500   -2.2250   -5.5830 o         1 MOL     -0.730102
    153 H65        -5.5300    0.3160   -1.8170 hn        1 MOL      0.238966
    154 H66        -7.3750   -1.7450   -0.7890 h1        1 MOL      0.108335
    155 H67        -5.7690   -3.2170   -2.4350 hc        1 MOL      0.043325
    156 H68        -5.3870   -1.5940   -3.1010 hc        1 MOL      0.043325
    157 H69        -7.5190   -1.0320   -3.6210 hc        1 MOL     -0.005159
    158 H70        -8.1880   -2.4910   -2.8440 hc        1 MOL     -0.005159
    159 N14        -4.4040   -1.7270    0.3490 n         1 MOL     -0.043277
    160 C53        -3.4020   -2.2610    1.3270 c3        1 MOL     -0.140196
    161 C54        -3.9570   -1.8980    2.7970 c         1 MOL      0.442156
    162 O24        -3.6790   -2.5950    3.7420 o         1 MOL     -0.559086
    163 C55        -1.9840   -1.7000    1.1290 c3        1 MOL      0.094815
    164 C56        -1.4170   -1.9990   -0.2360 c3        1 MOL     -0.035415
    165 C57        -0.0740   -1.3010   -0.4740 c         1 MOL      0.663228
    166 O25         0.8950   -2.0670   -0.7980 o         1 MOL     -0.691911
    167 O26         0.0040   -0.0510   -0.3580 o         1 MOL     -0.691911
    168 H71        -4.2990   -0.7470    0.1310 hn        1 MOL     -0.008740
    169 H72        -3.3370   -3.3470    1.1970 h1        1 MOL      0.116855
    170 H73        -1.3630   -2.2670    1.8200 hc        1 MOL      0.047494
    171 H74        -2.0020   -0.6130    1.1980 hc        1 MOL      0.047494
    172 H75        -2.0720   -1.6230   -1.0160 hc        1 MOL      0.004622
    173 H76        -1.3890   -3.0740   -0.4010 hc        1 MOL      0.004622
    174 N15        -4.6150   -0.7700    2.9090 n         1 MOL      0.054251
    175 C58        -5.4680   -0.3960    4.0550 c3        1 MOL     -0.223347
    176 H77        -4.8420   -0.1970    4.9250 h1        1 MOL      0.074363
    177 H78        -6.0390    0.5000    3.8080 h1        1 MOL      0.074363
    178 H79        -6.1530   -1.2130    4.2820 h1        1 MOL      0.074363
    179 H80        -4.6760   -0.1390    2.1170 hn        1 MOL      0.033330
    180 Ca1         2.4120    0.1780   -1.4390 Ca        1 MOL      1.750990
    181 O27         0.4750    0.9460   -3.3360 oh        1 MOL     -0.792857
    182 H81         0.3630    1.2730   -4.2240 ho        1 MOL      0.415659
    183 H82        -0.3710    0.5510   -3.1120 ho        1 MOL      0.415659
@<TRIPOS>BOND
     1    1    2 1   
     2    1    4 1   
     3    1    5 1   
     4    1    6 1   
     5    2    3 2   
     6    2    7 1   
     7    7    8 1   
     8    7   15 1   
     9    8    9 1   
    10    8   11 1   
    11    8   16 1   
    12    9   10 2   
    13    9   19 1   
    14   11   12 1   
    15   11   17 1   
    16   11   18 1   
    17   12   13 1   
    18   12   14 1   
    19   19   20 1   
    20   19   27 1   
    21   20   21 1   
    22   20   23 1   
    23   20   28 1   
    24   21   22 2   
    25   21   38 1   
    26   23   24 1   
    27   23   25 1   
    28   23   29 1   
    29   24   26 1   
    30   24   30 1   
    31   24   31 1   
    32   25   32 1   
    33   25   33 1   
    34   25   34 1   
    35   26   35 1   
    36   26   36 1   
    37   26   37 1   
    38   38   39 1   
    39   38   46 1   
    40   39   40 1   
    41   39   42 1   
    42   39   47 1   
    43   40   41 2   
    44   40   50 1   
    45   42   43 1   
    46   42   48 1   
    47   42   49 1   
    48   43   44 1   
    49   43   45 1   
    50   50   51 1   
    51   50   54 1   
    52   51   52 1   
    53   51   55 1   
    54   51   56 1   
    55   52   53 2   
    56   52   57 1   
    57   57   58 1   
    58   57   65 1   
    59   58   59 1   
    60   58   61 1   
    61   58   66 1   
    62   59   60 2   
    63   59   69 1   
    64   61   62 1   
    65   61   67 1   
    66   61   68 1   
    67   62   63 1   
    68   62   64 1   
    69   69   70 1   
    70   69   73 1   
    71   70   71 1   
    72   70   74 1   
    73   70   75 1   
    74   71   72 2   
    75   71   76 1   
    76   76   77 1   
    77   76   85 1   
    78   77   78 1   
    79   77   80 1   
    80   77   86 1   
    81   78   79 2   
    82   78   93 1   
    83   80   81 1   
    84   80   87 1   
    85   80   88 1   
    86   81   82 1   
    87   81   89 1   
    88   81   90 1   
    89   82   83 1   
    90   82   84 2   
    91   83   91 1   
    92   83   92 1   
    93   93   94 1   
    94   93  100 1   
    95   94   95 1   
    96   94   97 1   
    97   94  101 1   
    98   95   96 2   
    99   95  109 1   
   100   97   98 1   
   101   97   99 1   
   102   97  102 1   
   103   98  103 1   
   104   98  104 1   
   105   98  105 1   
   106   99  106 1   
   107   99  107 1   
   108   99  108 1   
   109  109  110 1   
   110  109  117 1   
   111  110  111 1   
   112  110  113 1   
   113  110  118 1   
   114  111  112 2   
   115  111  123 1   
   116  113  114 1   
   117  113  119 1   
   118  113  120 1   
   119  114  115 1   
   120  114  116 2   
   121  115  121 1   
   122  115  122 1   
   123  123  124 1   
   124  123  135 1   
   125  124  125 1   
   126  124  127 1   
   127  124  136 1   
   128  125  126 2   
   129  125  144 1   
   130  127  128 1   
   131  127  137 1   
   132  127  138 1   
   133  128  129 ar  
   134  128  130 ar  
   135  129  131 ar  
   136  129  139 1   
   137  130  132 ar  
   138  130  140 1   
   139  131  133 ar  
   140  131  141 1   
   141  132  133 ar  
   142  132  142 1   
   143  133  134 1   
   144  134  143 1   
   145  144  145 1   
   146  144  153 1   
   147  145  146 1   
   148  145  148 1   
   149  145  154 1   
   150  146  147 2   
   151  146  159 1   
   152  148  149 1   
   153  148  155 1   
   154  148  156 1   
   155  149  150 1   
   156  149  157 1   
   157  149  158 1   
   158  150  151 1   
   159  150  152 1   
   160  159  160 1   
   161  159  168 1   
   162  160  161 1   
   163  160  163 1   
   164  160  169 1   
   165  161  162 2   
   166  161  174 1   
   167  163  164 1   
   168  163  170 1   
   169  163  171 1   
   170  164  165 1   
   171  164  172 1   
   172  164  173 1   
   173  165  166 1   
   174  165  167 1   
   175  174  175 1   
   176  174  179 1   
   177  175  176 1   
   178  175  177 1   
   179  175  178 1   
   180  181  182 1   
   181  181  183 1   
@<TRIPOS>SUBSTRUCTURE
     1 MOL         1 TEMP              0 ****  ****    0 ROOT
