@<TRIPOS>MOLECULE
MOL
  189   185     1     0     0
SMALL
resp


@<TRIPOS>ATOM
      1 C1          0.3850    2.5310    5.8750 c3        1 MOL     -0.130166
      2 C2          0.0980    2.1880    4.3680 c         1 MOL      0.797625
      3 O1          1.0200    2.1540    3.5970 o         1 MOL     -0.623455
      4 H1          1.4290    2.8220    5.9880 hc        1 MOL      0.022451
      5 H2         -0.2580    3.3540    6.1890 hc        1 MOL      0.022451
      6 H3          0.1840    1.6560    6.4920 hc        1 MOL      0.022451
      7 N1         -1.1280    1.8750    4.0740 n         1 MOL     -0.693328
      8 C3         -1.5650    1.6970    2.6680 c3        1 MOL      0.129404
      9 C4         -1.9470    3.1370    2.0990 c         1 MOL      0.329715
     10 O2         -2.6930    3.9010    2.7410 o         1 MOL     -0.563422
     11 C5         -2.8040    0.7850    2.7070 c3        1 MOL     -0.042313
     12 C6         -3.5740    0.4800    1.4120 c         1 MOL      0.788464
     13 O3         -3.1240    0.9110    0.3510 o         1 MOL     -0.747575
     14 O4         -4.5020   -0.3790    1.4000 o         1 MOL     -0.747575
     15 H4         -1.8920    1.9780    4.7260 hn        1 MOL      0.357153
     16 H5         -0.8710    1.1670    2.0260 h1        1 MOL      0.020130
     17 H6         -3.5510    1.2370    3.3530 hc        1 MOL      0.004539
     18 H7         -2.5430   -0.1560    3.1740 hc        1 MOL      0.004539
     19 N2         -1.4780    3.5450    0.9300 n         1 MOL     -0.033925
     20 C7         -1.3730    4.9020    0.3620 c3        1 MOL     -0.356865
     21 C8         -2.2890    5.0160   -0.9320 c         1 MOL      0.613948
     22 O5         -2.2740    6.0870   -1.5810 o         1 MOL     -0.588743
     23 C9          0.1390    5.2820    0.0990 c3        1 MOL      0.167680
     24 C10         0.8650    5.5870    1.4320 c3        1 MOL      0.038387
     25 C11         0.4200    6.9340    1.9630 c3        1 MOL     -0.116541
     26 C12        -0.4230    6.9340    3.2210 c3        1 MOL      0.116423
     27 N3         -1.2610    8.1770    3.3700 n4        1 MOL     -0.500839
     28 H8         -1.0340    2.7600    0.4800 hn        1 MOL      0.303774
     29 H9         -1.6540    5.5790    1.1650 h1        1 MOL      0.103475
     30 H10         0.1220    6.1390   -0.5770 hc        1 MOL     -0.019272
     31 H11         0.5230    4.4090   -0.4210 hc        1 MOL     -0.019272
     32 H12         1.9340    5.6820    1.2110 hc        1 MOL      0.023218
     33 H13         0.6190    4.8510    2.1940 hc        1 MOL      0.023218
     34 H14        -0.1020    7.6700    1.3430 hc        1 MOL      0.037697
     35 H15         1.2530    7.6350    2.0600 hc        1 MOL      0.037697
     36 H16         0.2000    6.7080    4.0820 hx        1 MOL      0.057188
     37 H17        -1.1290    6.1020    3.1580 hx        1 MOL      0.057188
     38 H18        -1.9750    8.0080    2.6880 hn        1 MOL      0.370411
     39 H19        -1.6570    8.3790    4.2850 hn        1 MOL      0.370411
     40 H20        -0.6410    8.9540    3.2190 hn        1 MOL      0.370411
     41 N4         -3.0450    3.9710   -1.2830 n         1 MOL     -0.337570
     42 C13        -4.0940    3.9660   -2.2960 c3        1 MOL      0.189941
     43 C14        -5.3730    3.3930   -1.6930 c         1 MOL      0.379737
     44 O6         -6.4430    3.8310   -2.0180 o         1 MOL     -0.523834
     45 C15        -3.6230    3.2990   -3.5470 c3        1 MOL     -0.297425
     46 C16        -3.0420    1.9130   -3.3560 c         1 MOL      0.807094
     47 O7         -3.6410    1.1470   -2.6000 o         1 MOL     -0.756507
     48 O8         -1.8820    1.6230   -3.6950 o         1 MOL     -0.756507
     49 H21        -2.8130    3.1510   -0.7390 hn        1 MOL      0.129356
     50 H22        -4.3430    4.9940   -2.5580 h1        1 MOL      0.056899
     51 H23        -2.9690    3.9830   -4.0910 hc        1 MOL      0.075042
     52 H24        -4.4820    3.0970   -4.1900 hc        1 MOL      0.075042
     53 N5         -5.3010    2.5110   -0.6760 n         1 MOL     -0.234272
     54 C17        -6.4840    2.0210    0.1000 c3        1 MOL     -0.220105
     55 C18        -7.2070    0.7630   -0.5210 c         1 MOL      0.605947
     56 O9         -8.3220    0.4490   -0.1540 o         1 MOL     -0.595244
     57 H25        -4.3990    2.0670   -0.6050 hn        1 MOL      0.186311
     58 H26        -7.3080    2.7430    0.1000 h1        1 MOL      0.113982
     59 H27        -6.2150    1.7270    1.1110 h1        1 MOL      0.113982
     60 N6         -6.5010    0.0010   -1.3840 n         1 MOL     -0.398383
     61 C19        -6.9820   -1.2010   -2.0430 c3        1 MOL      0.037041
     62 C20        -7.1560   -2.3110   -1.0180 c         1 MOL      0.451888
     63 O10        -7.8450   -3.3090   -1.3050 o         1 MOL     -0.572593
     64 C21        -6.0420   -1.5990   -3.2080 c3        1 MOL     -0.267202
     65 C22        -4.6610   -1.8260   -2.7480 c         1 MOL      0.819425
     66 O11        -3.7550   -1.6350   -3.6310 o         1 MOL     -0.750834
     67 O12        -4.3370   -1.9910   -1.5870 o         1 MOL     -0.750834
     68 H28        -5.5270    0.2600   -1.4650 hn        1 MOL      0.305715
     69 H29        -7.9840   -1.0860   -2.4710 h1        1 MOL      0.092497
     70 H30        -6.1040   -0.8550   -4.0070 hc        1 MOL      0.082847
     71 H31        -6.4720   -2.5300   -3.5800 hc        1 MOL      0.082847
     72 N7         -6.6540   -2.1250    0.1970 n         1 MOL     -0.071675
     73 C23        -6.7820   -3.0670    1.3340 c3        1 MOL     -0.346415
     74 C24        -5.5710   -3.9380    1.5760 c         1 MOL      0.630329
     75 O13        -5.6790   -4.9600    2.2710 o         1 MOL     -0.587529
     76 H32        -6.0360   -1.3490    0.3800 hn        1 MOL      0.235398
     77 H33        -7.6240   -3.7450    1.2600 h1        1 MOL      0.132785
     78 H34        -6.7330   -2.5230    2.2810 h1        1 MOL      0.132785
     79 N8         -4.4160   -3.6370    0.9580 n         1 MOL     -0.248443
     80 C25        -3.1470   -4.3880    0.9860 c3        1 MOL     -0.422125
     81 C26        -1.9240   -3.4870    0.9930 c         1 MOL      0.787628
     82 O14        -1.9680   -2.4460    0.2730 o         1 MOL     -0.728925
     83 C27        -3.0920   -5.3790   -0.1720 c3        1 MOL      0.574807
     84 C28        -4.1300   -6.5070   -0.2090 c3        1 MOL     -0.521837
     85 O15        -3.3930   -4.5630   -1.2970 oh        1 MOL     -0.633623
     86 H35        -4.4880   -2.9180    0.2440 hn        1 MOL      0.243995
     87 H36        -3.0560   -4.8940    1.9420 h1        1 MOL      0.127053
     88 H37        -2.1000   -5.8190   -0.2660 h1        1 MOL     -0.052022
     89 H38        -3.6330   -3.6920   -0.9870 ho        1 MOL      0.373619
     90 H39        -4.0720   -6.9670    0.7680 hc        1 MOL      0.141344
     91 H40        -5.1280   -6.1260   -0.4280 hc        1 MOL      0.141344
     92 H41        -3.8580   -7.2360   -0.9720 hc        1 MOL      0.141344
     93 N9         -0.8270   -3.9460    1.6000 n         1 MOL     -0.485330
     94 C29         0.4280   -3.1570    1.6980 c3        1 MOL     -0.005245
     95 C30         1.6180   -3.7000    0.8340 c         1 MOL      0.435860
     96 O16         2.0870   -4.8360    1.0220 o         1 MOL     -0.558355
     97 C31         0.7810   -3.1860    3.1970 c3        1 MOL      0.288294
     98 C32        -0.2810   -2.4480    4.0300 c3        1 MOL      0.116837
     99 C33         2.2210   -2.6570    3.5050 c3        1 MOL     -0.374592
    100 C34        -0.1820   -2.6770    5.5700 c3        1 MOL     -0.399349
    101 H42        -0.8810   -4.7640    2.1880 hn        1 MOL      0.272582
    102 H43         0.2100   -2.1330    1.3980 h1        1 MOL      0.054612
    103 H44         0.7710   -4.1940    3.6280 hc        1 MOL     -0.033744
    104 H45        -1.2420   -2.8420    3.7010 hc        1 MOL     -0.001062
    105 H46        -0.1710   -1.3790    3.8140 hc        1 MOL     -0.001062
    106 H47         2.1690   -1.6130    3.1940 hc        1 MOL      0.073693
    107 H48         2.4270   -2.8230    4.5670 hc        1 MOL      0.073693
    108 H49         2.9320   -3.2290    2.9030 hc        1 MOL      0.073693
    109 H50        -0.1010   -3.7480    5.7760 hc        1 MOL      0.100377
    110 H51         0.7690   -2.2380    5.8810 hc        1 MOL      0.100377
    111 H52        -0.9690   -2.1530    6.0970 hc        1 MOL      0.100377
    112 N10         2.0750   -2.9010   -0.0910 n         1 MOL     -0.099417
    113 C35         3.2430   -3.0890   -0.9350 c3        1 MOL     -0.077301
    114 C36         4.6210   -2.9230   -0.1770 c         1 MOL      0.268004
    115 O17         4.6580   -2.1500    0.7760 o         1 MOL     -0.240432
    116 C37         3.2610   -2.3060   -2.1830 c3        1 MOL      0.202659
    117 C38         2.2190   -2.8530   -3.1430 c3        1 MOL     -0.432925
    118 O18         2.9710   -0.9300   -1.8630 oh        1 MOL     -0.504693
    119 H53         1.6340   -2.0030   -0.1920 hn        1 MOL      0.201690
    120 H54         3.3240   -4.1050   -1.3130 h1        1 MOL      0.075356
    121 H55         4.2650   -2.3350   -2.5900 h1        1 MOL      0.026329
    122 H56         2.0350   -1.0190   -1.6730 ho        1 MOL      0.303828
    123 H57         2.5090   -3.8520   -3.4500 hc        1 MOL      0.122334
    124 H58         1.2680   -2.9270   -2.6250 hc        1 MOL      0.122334
    125 H59         2.2290   -2.1400   -3.9640 hc        1 MOL      0.122334
    126 N11         5.7100   -3.4790   -0.6790 n         1 MOL     -0.245724
    127 C39         7.0730   -3.1810   -0.1690 c3        1 MOL     -0.120063
    128 C40         7.5240   -1.7180   -0.1790 c         1 MOL      0.285781
    129 O19         8.2880   -1.2650    0.6900 o         1 MOL     -0.472754
    130 C41         8.2330   -3.8900   -0.9160 c3        1 MOL      0.271306
    131 C42         8.5470   -5.2580   -0.2310 c3        1 MOL     -0.201432
    132 O20         7.9030   -4.2220   -2.2810 oh        1 MOL     -0.536137
    133 H60         5.6310   -4.1770   -1.4060 hn        1 MOL      0.247729
    134 H61         7.0730   -3.5250    0.8650 h1        1 MOL      0.160422
    135 H62         9.1390   -3.2870   -0.9020 h1        1 MOL      0.066811
    136 H63         7.4230   -3.4660   -2.6120 ho        1 MOL      0.307927
    137 H64         8.8230   -5.0570    0.8120 hc        1 MOL      0.062770
    138 H65         7.5890   -5.7830   -0.2280 hc        1 MOL      0.062770
    139 H66         9.3420   -5.7810   -0.7460 hc        1 MOL      0.062770
    140 N12         6.9150   -0.9390   -1.0310 n         1 MOL     -0.245743
    141 C43         7.1140    0.5480   -1.0560 c3        1 MOL      0.067327
    142 C44         6.3270    1.3190   -0.0430 c         1 MOL      0.408212
    143 O21         6.8440    2.1400    0.6730 o         1 MOL     -0.447456
    144 C45         6.9040    1.1130   -2.5140 c3        1 MOL     -0.132996
    145 C46         7.5080    2.5100   -2.7400 c3        1 MOL      0.038678
    146 C47         7.0910    3.1980   -4.0320 c3        1 MOL     -0.062875
    147 C48         7.4580    4.7170   -4.2680 c3        1 MOL      0.063443
    148 N13         6.5690    5.2200   -5.3010 n4        1 MOL     -0.265892
    149 H67         6.3860   -1.3380   -1.7860 hn        1 MOL      0.223059
    150 H68         8.1300    0.7580   -0.7450 h1        1 MOL      0.078892
    151 H69         5.8220    1.0890   -2.6790 hc        1 MOL      0.032655
    152 H70         7.4680    0.5360   -3.2390 hc        1 MOL      0.032655
    153 H71         8.5810    2.3390   -2.6180 hc        1 MOL      0.028872
    154 H72         7.2670    3.0930   -1.8520 hc        1 MOL      0.028872
    155 H73         6.0020    3.2480   -4.0220 hc        1 MOL      0.043673
    156 H74         7.4460    2.6390   -4.8960 hc        1 MOL      0.043673
    157 H75         8.5020    4.8770   -4.5070 hx        1 MOL      0.068783
    158 H76         7.3260    5.1850   -3.2890 hx        1 MOL      0.068783
    159 H77         6.9550    6.0890   -5.6460 hn        1 MOL      0.295370
    160 H78         6.4530    4.6280   -6.1070 hn        1 MOL      0.295370
    161 H79         5.6760    5.5840   -4.9830 hn        1 MOL      0.295370
    162 N14         4.9650    1.0230    0.0300 n         1 MOL     -0.349536
    163 C49         4.1720    1.3630    1.2670 c3        1 MOL     -0.007975
    164 C50         4.9000    1.0510    2.5640 c         1 MOL      0.232675
    165 O22         5.2400    1.9310    3.4100 o         1 MOL     -0.502765
    166 C51         2.7860    0.7370    1.1550 c3        1 MOL      0.085946
    167 C52         1.8190    1.5360    0.2660 c3        1 MOL     -0.023444
    168 C53         0.5880    0.7370   -0.2690 c         1 MOL      0.705749
    169 O23         0.6300   -0.4970   -0.4900 o         1 MOL     -0.673819
    170 O24        -0.4650    1.3110   -0.5810 o         1 MOL     -0.673819
    171 H80         4.5950    0.3410   -0.6170 hn        1 MOL      0.295035
    172 H81         3.9010    2.4170    1.2520 h1        1 MOL      0.083345
    173 H82         2.2890    0.6550    2.1160 hc        1 MOL      0.005788
    174 H83         2.7490   -0.2740    0.7290 hc        1 MOL      0.005788
    175 H84         2.4560    1.8000   -0.5790 hc        1 MOL     -0.055350
    176 H85         1.4920    2.4550    0.7630 hc        1 MOL     -0.055350
    177 N15         5.4340   -0.1810    2.7000 n         1 MOL      0.208190
    178 C54         6.1270   -0.6310    3.8850 c3        1 MOL     -0.396531
    179 H86         7.1770   -0.3490    3.8200 h1        1 MOL      0.126731
    180 H87         5.6810   -0.1690    4.7650 h1        1 MOL      0.126731
    181 H88         6.0470   -1.7160    3.9640 h1        1 MOL      0.126731
    182 H89         5.2220   -0.8490    1.9780 hn        1 MOL     -0.046734
    183 Ca1        -2.1240   -0.5300   -1.5730 Ca        1 MOL      1.805372
    184 O25        -0.4590   -0.5340   -3.8940 oh        1 MOL     -0.807189
    185 H90        -0.6840    0.3270   -4.2380 ho        1 MOL      0.389521
    186 H91        -0.2580   -1.0590   -4.6700 ho        1 MOL      0.389521
    187 O26        -1.4150   -2.9060   -2.5650 oh        1 MOL     -0.807189
    188 H92        -1.7800   -3.7120   -2.2100 ho        1 MOL      0.389521
    189 H93        -1.5050   -2.9900   -3.5150 ho        1 MOL      0.389521
@<TRIPOS>BOND
     1    1    2 1   
     2    1    4 1   
     3    1    5 1   
     4    1    6 1   
     5    2    3 2   
     6    2    7 1   
     7    7    8 1   
     8    7   15 1   
     9    8    9 1   
    10    8   11 1   
    11    8   16 1   
    12    9   10 2   
    13    9   19 1   
    14   11   12 1   
    15   11   17 1   
    16   11   18 1   
    17   12   13 1   
    18   12   14 1   
    19   19   20 1   
    20   19   28 1   
    21   20   21 1   
    22   20   23 1   
    23   20   29 1   
    24   21   22 2   
    25   21   41 1   
    26   23   24 1   
    27   23   30 1   
    28   23   31 1   
    29   24   25 1   
    30   24   32 1   
    31   24   33 1   
    32   25   26 1   
    33   25   34 1   
    34   25   35 1   
    35   26   27 1   
    36   26   36 1   
    37   26   37 1   
    38   27   38 1   
    39   27   39 1   
    40   27   40 1   
    41   41   42 1   
    42   41   49 1   
    43   42   43 1   
    44   42   45 1   
    45   42   50 1   
    46   43   44 2   
    47   43   53 1   
    48   45   46 1   
    49   45   51 1   
    50   45   52 1   
    51   46   47 1   
    52   46   48 1   
    53   53   54 1   
    54   53   57 1   
    55   54   55 1   
    56   54   58 1   
    57   54   59 1   
    58   55   56 2   
    59   55   60 1   
    60   60   61 1   
    61   60   68 1   
    62   61   62 1   
    63   61   64 1   
    64   61   69 1   
    65   62   63 2   
    66   62   72 1   
    67   64   65 1   
    68   64   70 1   
    69   64   71 1   
    70   65   66 1   
    71   65   67 1   
    72   72   73 1   
    73   72   76 1   
    74   73   74 1   
    75   73   77 1   
    76   73   78 1   
    77   74   75 2   
    78   74   79 1   
    79   79   80 1   
    80   79   86 1   
    81   80   81 1   
    82   80   83 1   
    83   80   87 1   
    84   81   82 2   
    85   81   93 1   
    86   83   84 1   
    87   83   85 1   
    88   83   88 1   
    89   84   90 1   
    90   84   91 1   
    91   84   92 1   
    92   85   89 1   
    93   93   94 1   
    94   93  101 1   
    95   94   95 1   
    96   94   97 1   
    97   94  102 1   
    98   95   96 2   
    99   95  112 1   
   100   97   98 1   
   101   97   99 1   
   102   97  103 1   
   103   98  100 1   
   104   98  104 1   
   105   98  105 1   
   106   99  106 1   
   107   99  107 1   
   108   99  108 1   
   109  100  109 1   
   110  100  110 1   
   111  100  111 1   
   112  112  113 1   
   113  112  119 1   
   114  113  114 1   
   115  113  116 1   
   116  113  120 1   
   117  114  115 2   
   118  114  126 1   
   119  116  117 1   
   120  116  118 1   
   121  116  121 1   
   122  117  123 1   
   123  117  124 1   
   124  117  125 1   
   125  118  122 1   
   126  126  127 1   
   127  126  133 1   
   128  127  128 1   
   129  127  130 1   
   130  127  134 1   
   131  128  129 2   
   132  128  140 1   
   133  130  131 1   
   134  130  132 1   
   135  130  135 1   
   136  131  137 1   
   137  131  138 1   
   138  131  139 1   
   139  132  136 1   
   140  140  141 1   
   141  140  149 1   
   142  141  142 1   
   143  141  144 1   
   144  141  150 1   
   145  142  143 2   
   146  142  162 1   
   147  144  145 1   
   148  144  151 1   
   149  144  152 1   
   150  145  146 1   
   151  145  153 1   
   152  145  154 1   
   153  146  147 1   
   154  146  155 1   
   155  146  156 1   
   156  147  148 1   
   157  147  157 1   
   158  147  158 1   
   159  148  159 1   
   160  148  160 1   
   161  148  161 1   
   162  162  163 1   
   163  162  171 1   
   164  163  164 1   
   165  163  166 1   
   166  163  172 1   
   167  164  165 2   
   168  164  177 1   
   169  166  167 1   
   170  166  173 1   
   171  166  174 1   
   172  167  168 1   
   173  167  175 1   
   174  167  176 1   
   175  168  169 1   
   176  168  170 1   
   177  177  178 1   
   178  177  182 1   
   179  178  179 1   
   180  178  180 1   
   181  178  181 1   
   182  184  185 1   
   183  184  186 1   
   184  187  188 1   
   185  187  189 1   
@<TRIPOS>SUBSTRUCTURE
     1 MOL         1 TEMP              0 ****  ****    0 ROOT
