@<TRIPOS>MOLECULE
MOL
  183   181     1     0     0
SMALL
resp


@<TRIPOS>ATOM
      1 C1         -0.4600    2.3730    6.1590 c3        1 MOL     -0.363980
      2 C2         -0.6990    1.9760    4.6530 c         1 MOL      0.721054
      3 O1         -0.0350    2.4110    3.7600 o         1 MOL     -0.552559
      4 H1          0.5760    2.1700    6.4270 hc        1 MOL      0.086111
      5 H2         -0.6680    3.4350    6.2920 hc        1 MOL      0.086111
      6 H3         -1.1230    1.7890    6.7980 hc        1 MOL      0.086111
      7 N1         -1.8340    1.2450    4.3620 n         1 MOL     -0.641378
      8 C3         -2.4620    1.2310    3.0320 c3        1 MOL      0.278819
      9 C4         -2.8870    2.6700    2.5520 c         1 MOL      0.488741
     10 O2         -3.7770    3.2330    3.1900 o         1 MOL     -0.589255
     11 C5         -3.6430    0.2030    3.0280 c3        1 MOL     -0.441144
     12 C6         -4.5110    0.1400    1.8700 c         1 MOL      0.949676
     13 O3         -5.5880   -0.4160    1.9080 o         1 MOL     -0.662257
     14 O4         -4.0140    0.5890    0.7850 o         1 MOL     -0.662257
     15 H4         -2.3840    0.8890    5.1350 hn        1 MOL      0.314096
     16 H5         -1.6100    0.9390    2.4170 h1        1 MOL     -0.034527
     17 H6         -4.3300    0.5180    3.8120 hc        1 MOL      0.082883
     18 H7         -3.3880   -0.8080    3.3290 hc        1 MOL      0.082883
     19 N2         -2.2970    3.2260    1.5150 n         1 MOL     -0.022763
     20 C7         -2.5030    4.6400    1.2020 c3        1 MOL     -0.371882
     21 C8         -3.6970    4.9450    0.3290 c         1 MOL      0.615434
     22 O5         -4.1040    6.0770    0.2120 o         1 MOL     -0.596263
     23 C9         -1.2290    5.3340    0.6440 c3        1 MOL      0.268742
     24 C10        -0.9510    5.0260   -0.8370 c3        1 MOL     -0.006241
     25 C11        -0.1190    5.0590    1.6050 c3        1 MOL     -0.152242
     26 C12         0.3080    5.6590   -1.3650 c3        1 MOL     -0.235513
     27 H8         -1.6550    2.7000    0.9350 hn        1 MOL      0.181193
     28 H9         -2.7680    5.2190    2.0920 h1        1 MOL      0.125121
     29 H10        -1.3840    6.4070    0.6770 hc        1 MOL     -0.054390
     30 H11        -1.7340    5.3730   -1.5140 hc        1 MOL      0.052101
     31 H12        -0.9930    3.9470   -0.9190 hc        1 MOL      0.052101
     32 H13         0.8360    5.4910    1.3340 hc        1 MOL      0.031652
     33 H14        -0.3690    5.5600    2.5460 hc        1 MOL      0.031652
     34 H15         0.0710    4.0070    1.8100 hc        1 MOL      0.031652
     35 H16         0.2000    5.7860   -2.4390 hc        1 MOL      0.049703
     36 H17         0.4240    6.6140   -0.8530 hc        1 MOL      0.049703
     37 H18         1.2060    5.1370   -1.0520 hc        1 MOL      0.049703
     38 N3         -4.2510    3.9390   -0.3470 n         1 MOL     -0.379844
     39 C13        -5.3070    3.9760   -1.2900 c3        1 MOL      0.082445
     40 C14        -6.5180    3.0320   -1.0270 c         1 MOL      0.463349
     41 O6         -7.6040    3.3180   -1.5290 o         1 MOL     -0.563066
     42 C15        -4.8080    3.7870   -2.7620 c3        1 MOL     -0.361764
     43 C16        -4.0590    2.4490   -3.1300 c         1 MOL      0.823662
     44 O7         -3.6360    2.3540   -4.2810 o         1 MOL     -0.710703
     45 O8         -3.8410    1.5700   -2.2440 o         1 MOL     -0.710703
     46 H19        -3.7870    3.0410   -0.4120 hn        1 MOL      0.149605
     47 H20        -5.8250    4.9320   -1.3320 h1        1 MOL      0.068254
     48 H21        -4.2450    4.6760   -3.0440 hc        1 MOL      0.086250
     49 H22        -5.6920    3.6850   -3.3880 hc        1 MOL      0.086250
     50 N4         -6.4610    2.0090   -0.1610 n         1 MOL     -0.076864
     51 C17        -7.6970    1.4200    0.3690 c3        1 MOL     -0.153488
     52 C18        -8.0830    0.1920   -0.3620 c         1 MOL      0.529572
     53 O9         -9.1810    0.0820   -0.9380 o         1 MOL     -0.624113
     54 H23        -5.5680    1.6550    0.1400 hn        1 MOL      0.026607
     55 H24        -8.4290    2.2200    0.1980 h1        1 MOL      0.066602
     56 H25        -7.6820    1.2410    1.4390 h1        1 MOL      0.066602
     57 N5         -7.1930   -0.7480   -0.4560 n         1 MOL     -0.087173
     58 C19        -7.4040   -2.1160   -1.0510 c3        1 MOL      0.001690
     59 C20        -7.0450   -3.1920   -0.0640 c         1 MOL      0.382464
     60 O10        -7.3470   -4.3710   -0.3930 o         1 MOL     -0.538773
     61 C21        -6.5360   -2.2190   -2.2890 c3        1 MOL     -0.046324
     62 C22        -5.0790   -1.8210   -1.9770 c         1 MOL      0.583430
     63 O11        -4.2770   -1.5250   -2.9120 o         1 MOL     -0.676972
     64 O12        -4.6650   -1.7860   -0.7680 o         1 MOL     -0.676972
     65 H26        -6.4530   -0.7100    0.2290 hn        1 MOL     -0.031694
     66 H27        -8.4260   -2.2520   -1.4090 h1        1 MOL      0.074939
     67 H28        -6.9080   -1.6260   -3.1260 hc        1 MOL      0.028449
     68 H29        -6.5180   -3.2730   -2.5710 hc        1 MOL      0.028449
     69 N6         -6.5440   -2.9920    1.1920 n         1 MOL     -0.272108
     70 C23        -6.2770   -4.1160    2.0600 c3        1 MOL     -0.068879
     71 C24        -4.9100   -4.6500    1.8400 c         1 MOL      0.510945
     72 O13        -4.5860   -5.7070    2.4090 o         1 MOL     -0.634751
     73 H30        -6.2770   -2.0650    1.4830 hn        1 MOL      0.257103
     74 H31        -6.9400   -4.9680    1.9370 h1        1 MOL      0.067979
     75 H32        -6.3410   -3.7680    3.0920 h1        1 MOL      0.067979
     76 N7         -3.9800   -4.0800    1.1180 n         1 MOL     -0.164756
     77 C25        -2.5780   -4.5170    1.0620 c3        1 MOL      0.041689
     78 C26        -1.6750   -3.3010    1.0960 c         1 MOL      0.578837
     79 O14        -2.0980   -2.1810    0.8190 o         1 MOL     -0.754195
     80 C27        -2.4360   -5.5210   -0.1310 c3        1 MOL     -0.000737
     81 C28        -2.6770   -4.9000   -1.5430 c3        1 MOL     -0.187085
     82 C29        -1.5220   -4.0440   -2.0090 c         1 MOL      0.544632
     83 N8         -0.5770   -4.5660   -2.7500 n         1 MOL     -0.710335
     84 O15        -1.4970   -2.8520   -1.7730 o         1 MOL     -0.474533
     85 H33        -4.1900   -3.2340    0.6190 hn        1 MOL      0.224506
     86 H34        -2.3490   -5.1110    1.9500 h1        1 MOL      0.038718
     87 H35        -3.1650   -6.3070    0.0680 hc        1 MOL      0.009195
     88 H36        -1.4520   -5.9900   -0.1130 hc        1 MOL      0.009195
     89 H37        -3.5280   -4.2190   -1.5410 hc        1 MOL      0.072282
     90 H38        -2.8400   -5.7060   -2.2510 hc        1 MOL      0.072282
     91 H39        -0.6410   -5.5230   -3.0690 hn        1 MOL      0.333105
     92 H40         0.1230   -3.9350   -3.1110 hn        1 MOL      0.333105
     93 N9         -0.4070   -3.4370    1.4020 n         1 MOL     -0.420459
     94 C30         0.5630   -2.3640    1.6290 c3        1 MOL     -0.257464
     95 C31         1.8510   -2.7770    0.9250 c         1 MOL      0.446285
     96 O16         2.5040   -3.7430    1.3070 o         1 MOL     -0.563439
     97 C32         0.8410   -2.3110    3.1280 c3        1 MOL      0.356015
     98 C33         1.7150   -1.1170    3.5330 c3        1 MOL     -0.451562
     99 C34        -0.4970   -2.1080    3.9050 c3        1 MOL     -0.451562
    100 H41        -0.1100   -4.3780    1.6390 hn        1 MOL      0.288031
    101 H42         0.2410   -1.4180    1.1990 h1        1 MOL      0.321194
    102 H43         1.3310   -3.1710    3.5790 hc        1 MOL     -0.010320
    103 H44         1.7310   -1.0570    4.6220 hc        1 MOL      0.101796
    104 H45         2.6660   -1.3700    3.0780 hc        1 MOL      0.101796
    105 H46         1.4720   -0.2140    2.9730 hc        1 MOL      0.101796
    106 H47        -0.8210   -1.1080    3.6200 hc        1 MOL      0.101796
    107 H48        -1.3530   -2.7610    3.7580 hc        1 MOL      0.101796
    108 H49        -0.2870   -2.1240    4.9820 hc        1 MOL      0.101796
    109 N10         2.0520   -2.1570   -0.2140 n         1 MOL     -0.097604
    110 C35         3.2490   -2.3700   -1.0290 c3        1 MOL     -0.063772
    111 C36         4.4990   -1.9290   -0.3070 c         1 MOL      0.492499
    112 O17         4.4210   -1.2730    0.7440 o         1 MOL     -0.385127
    113 C37         3.1420   -1.6170   -2.3700 c3        1 MOL     -0.426704
    114 C38         2.2070   -2.1890   -3.4010 c         1 MOL      0.777076
    115 N11         0.9600   -1.7510   -3.2960 n         1 MOL     -0.766193
    116 O18         2.5590   -2.9110   -4.3210 o         1 MOL     -0.610002
    117 H50         1.4240   -1.4730   -0.6090 hn        1 MOL      0.180148
    118 H51         3.2380   -3.4540   -1.1590 h1        1 MOL      0.086523
    119 H52         4.1420   -1.6750   -2.8140 hc        1 MOL      0.102968
    120 H53         2.9770   -0.5530   -2.2160 hc        1 MOL      0.102968
    121 H54         0.6880   -1.0620   -2.6160 hn        1 MOL      0.355234
    122 H55         0.3760   -1.8890   -4.1150 hn        1 MOL      0.355234
    123 N12         5.6820   -2.1250   -0.9150 n         1 MOL     -0.622313
    124 C39         6.9540   -1.6030   -0.3130 c3        1 MOL      0.277636
    125 C40         6.9410   -0.0870   -0.2610 c         1 MOL      0.603909
    126 O19         7.0950    0.4650    0.7960 o         1 MOL     -0.571689
    127 C41         8.1520   -2.3140   -0.9740 c3        1 MOL     -0.177296
    128 C42         9.4570   -1.8990   -0.3330 ca        1 MOL      0.032145
    129 C43         9.7670   -2.3010    1.0000 ca        1 MOL     -0.188502
    130 C44        10.3300   -1.0210   -1.0130 ca        1 MOL     -0.188502
    131 C45        10.9720   -1.8870    1.6290 ca        1 MOL     -0.211835
    132 C46        11.4840   -0.5430   -0.3560 ca        1 MOL     -0.211835
    133 C47        11.7920   -0.9740    0.9190 ca        1 MOL      0.312460
    134 O20        12.9040   -0.5610    1.5650 oh        1 MOL     -0.517338
    135 H56         5.6630   -2.5170   -1.8440 hn        1 MOL      0.323594
    136 H57         6.9800   -1.9460    0.7240 h1        1 MOL      0.048188
    137 H58         8.1520   -2.1330   -2.0450 hc        1 MOL      0.062732
    138 H59         8.0630   -3.3920   -0.8510 hc        1 MOL      0.062732
    139 H60         9.0890   -2.8690    1.6130 ha        1 MOL      0.144116
    140 H61        10.1510   -0.7830   -2.0510 ha        1 MOL      0.144116
    141 H62        11.2010   -2.1890    2.6390 ha        1 MOL      0.133945
    142 H63        12.1980    0.1660   -0.7500 ha        1 MOL      0.133945
    143 H64        13.4590    0.1090    1.1750 ho        1 MOL      0.371107
    144 N13         6.5040    0.5570   -1.3120 n         1 MOL     -0.538161
    145 C48         6.3850    2.0410   -1.4420 c3        1 MOL     -0.004614
    146 C49         5.4400    2.6230   -0.4210 c         1 MOL      0.458517
    147 O21         5.5170    3.7900   -0.1240 o         1 MOL     -0.543686
    148 C50         5.8880    2.4120   -2.8810 c3        1 MOL     -0.165566
    149 C51         4.3880    2.0710   -3.1420 c3        1 MOL     -0.025363
    150 C52         4.0690    2.1320   -4.6040 c         1 MOL      0.651029
    151 O22         3.3060    1.2980   -5.1100 o         1 MOL     -0.717612
    152 O23         4.6920    2.9030   -5.3400 o         1 MOL     -0.717612
    153 H65         6.3720   -0.0700   -2.0950 hn        1 MOL      0.295562
    154 H66         7.3730    2.4510   -1.2190 h1        1 MOL      0.073859
    155 H67         6.5720    1.9980   -3.6230 hc        1 MOL      0.057835
    156 H68         5.9280    3.4920   -3.0270 hc        1 MOL      0.057835
    157 H69         3.8360    2.9020   -2.6960 hc        1 MOL      0.017501
    158 H70         4.0020    1.1530   -2.6940 hc        1 MOL      0.017501
    159 N14         4.5200    1.8130    0.1310 n         1 MOL     -0.034287
    160 C53         3.6280    2.3200    1.1340 c3        1 MOL     -0.167100
    161 C54         4.1980    2.0640    2.5400 c         1 MOL      0.384716
    162 O24         4.3080    2.9270    3.4110 o         1 MOL     -0.532357
    163 C55         2.2410    1.6450    0.9790 c3        1 MOL      0.170068
    164 C56         1.7170    1.6860   -0.4760 c3        1 MOL     -0.213127
    165 C57         0.3840    0.9030   -0.6010 c         1 MOL      0.846142
    166 O25        -0.6850    1.3150   -0.0790 o         1 MOL     -0.808748
    167 O26         0.2400   -0.1680   -1.1860 o         1 MOL     -0.808748
    168 H71         4.5120    0.8970   -0.2920 hn        1 MOL      0.255200
    169 H72         3.5680    3.3940    1.0090 h1        1 MOL      0.120049
    170 H73         1.4440    2.1630    1.5040 hc        1 MOL      0.004169
    171 H74         2.3350    0.6010    1.2910 hc        1 MOL      0.004169
    172 H75         2.3570    1.2230   -1.2320 hc        1 MOL      0.027264
    173 H76         1.5950    2.7530   -0.6310 hc        1 MOL      0.027264
    174 N15         4.6660    0.7970    2.8270 n         1 MOL      0.004025
    175 C58         5.3510    0.4440    4.0470 c3        1 MOL     -0.284999
    176 H77         6.4090    0.2840    3.8360 h1        1 MOL      0.091263
    177 H78         5.2440    1.2520    4.7700 h1        1 MOL      0.091263
    178 H79         4.9200   -0.4700    4.4550 h1        1 MOL      0.091263
    179 H80         4.6610    0.1880    2.0300 hn        1 MOL      0.032699
    180 Ca1        -2.5130   -0.3970   -1.0580 Ca        1 MOL      1.760919
    181 O27        -1.6220    0.1600   -3.6110 oh        1 MOL     -0.874524
    182 H81        -2.2400    0.6500   -4.1390 ho        1 MOL      0.415699
    183 H82        -0.7580    0.4550   -3.9010 ho        1 MOL      0.415699
@<TRIPOS>BOND
     1    1    2 1   
     2    1    4 1   
     3    1    5 1   
     4    1    6 1   
     5    2    3 2   
     6    2    7 1   
     7    7    8 1   
     8    7   15 1   
     9    8    9 1   
    10    8   11 1   
    11    8   16 1   
    12    9   10 2   
    13    9   19 1   
    14   11   12 1   
    15   11   17 1   
    16   11   18 1   
    17   12   13 1   
    18   12   14 1   
    19   19   20 1   
    20   19   27 1   
    21   20   21 1   
    22   20   23 1   
    23   20   28 1   
    24   21   22 2   
    25   21   38 1   
    26   23   24 1   
    27   23   25 1   
    28   23   29 1   
    29   24   26 1   
    30   24   30 1   
    31   24   31 1   
    32   25   32 1   
    33   25   33 1   
    34   25   34 1   
    35   26   35 1   
    36   26   36 1   
    37   26   37 1   
    38   38   39 1   
    39   38   46 1   
    40   39   40 1   
    41   39   42 1   
    42   39   47 1   
    43   40   41 2   
    44   40   50 1   
    45   42   43 1   
    46   42   48 1   
    47   42   49 1   
    48   43   44 1   
    49   43   45 1   
    50   50   51 1   
    51   50   54 1   
    52   51   52 1   
    53   51   55 1   
    54   51   56 1   
    55   52   53 2   
    56   52   57 1   
    57   57   58 1   
    58   57   65 1   
    59   58   59 1   
    60   58   61 1   
    61   58   66 1   
    62   59   60 2   
    63   59   69 1   
    64   61   62 1   
    65   61   67 1   
    66   61   68 1   
    67   62   63 1   
    68   62   64 1   
    69   69   70 1   
    70   69   73 1   
    71   70   71 1   
    72   70   74 1   
    73   70   75 1   
    74   71   72 2   
    75   71   76 1   
    76   76   77 1   
    77   76   85 1   
    78   77   78 1   
    79   77   80 1   
    80   77   86 1   
    81   78   79 2   
    82   78   93 1   
    83   80   81 1   
    84   80   87 1   
    85   80   88 1   
    86   81   82 1   
    87   81   89 1   
    88   81   90 1   
    89   82   83 1   
    90   82   84 2   
    91   83   91 1   
    92   83   92 1   
    93   93   94 1   
    94   93  100 1   
    95   94   95 1   
    96   94   97 1   
    97   94  101 1   
    98   95   96 2   
    99   95  109 1   
   100   97   98 1   
   101   97   99 1   
   102   97  102 1   
   103   98  103 1   
   104   98  104 1   
   105   98  105 1   
   106   99  106 1   
   107   99  107 1   
   108   99  108 1   
   109  109  110 1   
   110  109  117 1   
   111  110  111 1   
   112  110  113 1   
   113  110  118 1   
   114  111  112 2   
   115  111  123 1   
   116  113  114 1   
   117  113  119 1   
   118  113  120 1   
   119  114  115 1   
   120  114  116 2   
   121  115  121 1   
   122  115  122 1   
   123  123  124 1   
   124  123  135 1   
   125  124  125 1   
   126  124  127 1   
   127  124  136 1   
   128  125  126 2   
   129  125  144 1   
   130  127  128 1   
   131  127  137 1   
   132  127  138 1   
   133  128  129 ar  
   134  128  130 ar  
   135  129  131 ar  
   136  129  139 1   
   137  130  132 ar  
   138  130  140 1   
   139  131  133 ar  
   140  131  141 1   
   141  132  133 ar  
   142  132  142 1   
   143  133  134 1   
   144  134  143 1   
   145  144  145 1   
   146  144  153 1   
   147  145  146 1   
   148  145  148 1   
   149  145  154 1   
   150  146  147 2   
   151  146  159 1   
   152  148  149 1   
   153  148  155 1   
   154  148  156 1   
   155  149  150 1   
   156  149  157 1   
   157  149  158 1   
   158  150  151 1   
   159  150  152 1   
   160  159  160 1   
   161  159  168 1   
   162  160  161 1   
   163  160  163 1   
   164  160  169 1   
   165  161  162 2   
   166  161  174 1   
   167  163  164 1   
   168  163  170 1   
   169  163  171 1   
   170  164  165 1   
   171  164  172 1   
   172  164  173 1   
   173  165  166 1   
   174  165  167 1   
   175  174  175 1   
   176  174  179 1   
   177  175  176 1   
   178  175  177 1   
   179  175  178 1   
   180  181  182 1   
   181  181  183 1   
@<TRIPOS>SUBSTRUCTURE
     1 MOL         1 TEMP              0 ****  ****    0 ROOT
