@<TRIPOS>MOLECULE
MOL
  176   174     1     0     0
SMALL
resp


@<TRIPOS>ATOM
      1 C1          1.3960    2.5500    5.9940 c3        1 MOL     -0.309659
      2 C2          0.9310    2.3830    4.4990 c         1 MOL      0.762911
      3 O1          1.6590    2.4990    3.5710 o         1 MOL     -0.619253
      4 H1          1.9920    1.6860    6.2870 hc        1 MOL      0.075376
      5 H2          1.9970    3.4550    6.0890 hc        1 MOL      0.075376
      6 H3          0.5220    2.6240    6.6410 hc        1 MOL      0.075376
      7 N1         -0.3640    2.0540    4.3560 n         1 MOL     -0.594707
      8 C3         -1.0700    1.8940    3.0520 c3        1 MOL      0.037442
      9 C4         -1.0550    3.2160    2.2520 c         1 MOL      0.517957
     10 O2         -1.7490    4.2110    2.6400 o         1 MOL     -0.589362
     11 C5         -2.4950    1.3830    3.1640 c3        1 MOL     -0.129638
     12 C6         -3.0890    1.1100    1.7750 c         1 MOL      0.708259
     13 O3         -4.3750    0.8440    1.6970 o         1 MOL     -0.744706
     14 O4         -2.4630    1.2400    0.7010 o         1 MOL     -0.744706
     15 H4         -0.9440    2.0350    5.1900 hn        1 MOL      0.331799
     16 H5         -0.5210    1.1650    2.4510 h1        1 MOL      0.103121
     17 H6         -3.0420    2.1470    3.7240 hc        1 MOL      0.054478
     18 H7         -2.4970    0.5210    3.8350 hc        1 MOL      0.054478
     19 N2         -0.2420    3.4110    1.2410 n         1 MOL     -0.085351
     20 C7          0.0640    4.6540    0.4890 c3        1 MOL     -0.416834
     21 C8         -1.0980    5.2760   -0.2760 c         1 MOL      0.687931
     22 O5         -1.0210    6.4660   -0.5420 o         1 MOL     -0.551502
     23 C9          1.3010    4.3790   -0.4280 c3        1 MOL      0.168640
     24 C10         2.0160    5.6720   -0.6920 c3        1 MOL     -0.335925
     25 C11         3.2930    5.4070   -1.5580 c3        1 MOL     -0.001433
     26 C12         3.8770    6.6950   -2.0510 c3        1 MOL      0.186700
     27 N3          5.2170    6.4800   -2.6060 n4        1 MOL     -0.504617
     28 H8          0.2780    2.6080    0.9290 hn        1 MOL      0.174483
     29 H9          0.4280    5.3370    1.2630 h1        1 MOL      0.152449
     30 H10         1.0070    3.8110   -1.3060 hc        1 MOL      0.094530
     31 H11         1.9470    3.6840    0.1220 hc        1 MOL      0.094530
     32 H12         2.3320    6.1780    0.2290 hc        1 MOL      0.112732
     33 H13         1.3810    6.3720   -1.2540 hc        1 MOL      0.112732
     34 H14         3.0530    4.7690   -2.4090 hc        1 MOL      0.030883
     35 H15         4.0460    4.9080   -0.9430 hc        1 MOL      0.030883
     36 H16         4.0070    7.4090   -1.2410 hx        1 MOL      0.051090
     37 H17         3.1440    7.2320   -2.6530 hx        1 MOL      0.051090
     38 H18         5.8850    6.4850   -1.8410 hn        1 MOL      0.358052
     39 H19         5.2790    5.6090   -3.1160 hn        1 MOL      0.358052
     40 H20         5.5940    7.1900   -3.2240 hn        1 MOL      0.358052
     41 N4         -2.0440    4.3310   -0.6470 n         1 MOL     -0.525057
     42 C13        -3.0450    4.5290   -1.7110 c3        1 MOL      0.019227
     43 C14        -4.4450    4.0170   -1.2670 c         1 MOL      0.421155
     44 O6         -5.3360    4.0320   -2.1810 o         1 MOL     -0.497596
     45 C15        -2.4630    3.9080   -3.0210 c3        1 MOL     -0.125957
     46 C16        -2.0130    2.5070   -2.8670 c         1 MOL      0.782447
     47 O7         -2.8450    1.5550   -2.9740 o         1 MOL     -0.775381
     48 O8         -0.8050    2.2470   -2.6110 o         1 MOL     -0.775381
     49 H21        -1.9490    3.3700   -0.3430 hn        1 MOL      0.327638
     50 H22        -3.1150    5.6140   -1.8170 h1        1 MOL      0.106398
     51 H23        -1.6060    4.4910   -3.3500 hc        1 MOL      0.035150
     52 H24        -3.2360    3.8570   -3.7850 hc        1 MOL      0.035150
     53 N5         -4.6920    3.8680    0.0820 n         1 MOL     -0.244510
     54 C17        -6.0550    3.5480    0.5430 c3        1 MOL     -0.177821
     55 C18        -6.7450    2.3120   -0.0780 c         1 MOL      0.505811
     56 O9         -7.9660    2.2130    0.0730 o         1 MOL     -0.563725
     57 H25        -3.9220    4.0490    0.7040 hn        1 MOL      0.240862
     58 H26        -6.7300    4.3950    0.4240 h1        1 MOL      0.120787
     59 H27        -5.9620    3.3100    1.6000 h1        1 MOL      0.120787
     60 N6         -6.0610    1.3360   -0.6890 n         1 MOL     -0.216132
     61 C19        -6.6630    0.1570   -1.3800 c3        1 MOL      0.061607
     62 C20        -6.9550   -0.9640   -0.4160 c         1 MOL      0.424431
     63 O10        -7.8110   -1.8100   -0.6600 o         1 MOL     -0.563142
     64 C21        -5.8310   -0.2890   -2.5780 c3        1 MOL     -0.387408
     65 C22        -4.8320   -1.3880   -2.3590 c         1 MOL      0.743543
     66 N7         -5.0390   -2.5980   -2.8360 n         1 MOL     -0.790426
     67 O11        -3.8750   -1.1470   -1.6280 o         1 MOL     -0.652182
     68 H28        -5.0760    1.5610   -0.7880 hn        1 MOL      0.162576
     69 H29        -7.6680    0.4330   -1.7430 h1        1 MOL      0.114298
     70 H30        -5.3090    0.5450   -3.0390 hc        1 MOL      0.126680
     71 H31        -6.5640   -0.7170   -3.2580 hc        1 MOL      0.126680
     72 H32        -5.7650   -2.7470   -3.5260 hn        1 MOL      0.367566
     73 H33        -4.5030   -3.3640   -2.4510 hn        1 MOL      0.367566
     74 N8         -6.2670   -1.1030    0.7380 n         1 MOL     -0.122309
     75 C23        -6.5060   -1.9610    1.9140 c3        1 MOL     -0.226721
     76 C24        -5.4500   -3.0080    2.1880 c         1 MOL      0.513569
     77 O12        -5.6830   -3.9030    3.0140 o         1 MOL     -0.570857
     78 H34        -5.5080   -0.4460    0.8810 hn        1 MOL      0.210623
     79 H35        -7.5070   -2.3910    1.8660 h1        1 MOL      0.126241
     80 H36        -6.5790   -1.3210    2.7900 h1        1 MOL      0.126241
     81 N9         -4.3500   -2.9920    1.4940 n         1 MOL     -0.273261
     82 C25        -3.2110   -3.7810    1.8260 c3        1 MOL      0.104729
     83 C26        -1.9400   -2.8710    1.5390 c         1 MOL      0.506079
     84 O13        -2.0090   -1.8390    0.8510 o         1 MOL     -0.607875
     85 C27        -3.2200   -5.0210    0.9490 c3        1 MOL     -0.207019
     86 C28        -2.7830   -4.9530   -0.5180 ca        1 MOL      0.071479
     87 C29        -1.5230   -4.6010   -0.9750 ca        1 MOL     -0.104780
     88 C30        -3.7290   -5.2310   -1.4950 ca        1 MOL     -0.104780
     89 C31        -1.2670   -4.3520   -2.3220 ca        1 MOL     -0.317877
     90 C32        -3.4610   -5.2040   -2.8440 ca        1 MOL     -0.317877
     91 C33        -2.2170   -4.7240   -3.2640 ca        1 MOL      0.398155
     92 O14        -1.9490   -4.6210   -4.5730 oh        1 MOL     -0.522277
     93 H37        -4.2970   -2.4020    0.6760 hn        1 MOL      0.231771
     94 H38        -3.2100   -4.0020    2.9000 h1        1 MOL      0.073115
     95 H39        -4.0700   -5.6690    1.1950 hc        1 MOL      0.079700
     96 H40        -2.4080   -5.6060    1.3690 hc        1 MOL      0.079700
     97 H41        -0.6650   -4.4190   -0.3360 ha        1 MOL      0.118911
     98 H42        -4.7010   -5.5600   -1.1600 ha        1 MOL      0.118911
     99 H43        -0.2530   -4.0550   -2.5350 ha        1 MOL      0.144113
    100 H44        -4.0960   -5.5480   -3.6550 ha        1 MOL      0.144113
    101 H45        -2.5400   -5.1600   -5.1000 ho        1 MOL      0.384189
    102 N10        -0.7530   -3.2600    2.0630 n         1 MOL     -0.396336
    103 C34         0.5800   -2.6510    1.9630 c3        1 MOL     -0.075729
    104 C35         1.5110   -3.5950    1.1560 c         1 MOL      0.444229
    105 O15         1.4530   -4.8090    1.4150 o         1 MOL     -0.520858
    106 C36         1.2120   -2.3150    3.3720 c3        1 MOL      0.355582
    107 C37         0.2040   -1.7560    4.5110 c3        1 MOL      0.092197
    108 C38         2.5030   -1.4820    3.2960 c3        1 MOL     -0.582667
    109 C39         0.5720   -2.1500    5.9590 c3        1 MOL     -0.187047
    110 H46        -0.8140   -4.0610    2.6920 hn        1 MOL      0.261032
    111 H47         0.5970   -1.6810    1.4610 h1        1 MOL      0.038280
    112 H48         1.4900   -3.3150    3.7100 hc        1 MOL     -0.037194
    113 H49        -0.7390   -2.3000    4.3950 hc        1 MOL     -0.033438
    114 H50         0.0110   -0.6890    4.3540 hc        1 MOL     -0.033438
    115 H51         2.9560   -1.3760    4.2800 hc        1 MOL      0.116188
    116 H52         3.2750   -2.0690    2.7990 hc        1 MOL      0.116188
    117 H53         2.3920   -0.5420    2.7520 hc        1 MOL      0.116188
    118 H54        -0.0740   -1.7480    6.7410 hc        1 MOL      0.044079
    119 H55         0.6070   -3.2340    6.0060 hc        1 MOL      0.044079
    120 H56         1.6140   -1.8460    6.1280 hc        1 MOL      0.044079
    121 N11         2.4440   -2.9970    0.3730 n         1 MOL     -0.368913
    122 C40         3.4840   -3.7220   -0.4520 c3        1 MOL     -0.065198
    123 C41         4.9250   -3.1810   -0.1060 c         1 MOL      0.380086
    124 O16         5.0290   -2.1830    0.5780 o         1 MOL     -0.361938
    125 C42         3.0220   -3.6410   -1.9240 c3        1 MOL      0.003984
    126 O17         3.0230   -2.3040   -2.3940 oh        1 MOL     -0.634608
    127 H57         2.4170   -1.9880    0.3300 hn        1 MOL      0.584174
    128 H58         3.4110   -4.7860   -0.2390 h1        1 MOL      0.068688
    129 H59         2.0520   -4.1320   -2.0740 h1        1 MOL      0.093074
    130 H60         3.6630   -4.2950   -2.5180 h1        1 MOL      0.093074
    131 H61         2.3620   -1.7710   -1.9400 ho        1 MOL      0.421203
    132 N12         5.9410   -3.7700   -0.7220 n         1 MOL     -0.324210
    133 C43         7.3710   -3.4920   -0.4860 c3        1 MOL      0.031125
    134 C44         7.7350   -1.9980   -0.7980 c         1 MOL      0.538670
    135 O18         8.3430   -1.3260   -0.0540 o         1 MOL     -0.500763
    136 C45         8.1680   -4.4220   -1.3590 c3        1 MOL     -0.264133
    137 H62         5.7000   -4.6170   -1.2230 hn        1 MOL      0.271949
    138 H63         7.5480   -3.7510    0.5550 h1        1 MOL      0.098640
    139 H64         8.3060   -5.4660   -1.0780 hc        1 MOL      0.085464
    140 H65         7.7000   -4.4940   -2.3440 hc        1 MOL      0.085464
    141 H66         9.1430   -3.9670   -1.5590 hc        1 MOL      0.085464
    142 N13         7.2760   -1.4430   -1.9310 n         1 MOL     -0.446297
    143 C46         7.5530    0.0110   -2.2100 c3        1 MOL      0.186285
    144 C47         6.8420    1.0140   -1.3760 c         1 MOL      0.287936
    145 O19         7.3480    2.1070   -1.0260 o         1 MOL     -0.529115
    146 C48         7.2460    0.2330   -3.6500 c3        1 MOL     -0.420039
    147 H67         6.7730   -1.9960   -2.6130 hn        1 MOL      0.276226
    148 H68         8.5860    0.2720   -1.9780 h1        1 MOL      0.102201
    149 H69         7.1830    1.2680   -3.9730 hc        1 MOL      0.114738
    150 H70         8.0180   -0.3000   -4.2140 hc        1 MOL      0.114738
    151 H71         6.3260   -0.2990   -3.8500 hc        1 MOL      0.114738
    152 N14         5.7560    0.5920   -0.7800 n         1 MOL     -0.005439
    153 C49         4.9170    1.2880    0.2560 c3        1 MOL     -0.270638
    154 C50         5.6190    1.2580    1.5800 c         1 MOL      0.591247
    155 O20         5.8640    2.2780    2.2160 o         1 MOL     -0.561150
    156 C51         3.4640    0.8600    0.3510 c3        1 MOL      0.012307
    157 C52         2.8010    0.7650   -1.0050 c3        1 MOL      0.072912
    158 C53         1.4150    0.2650   -0.8650 c         1 MOL      0.675526
    159 O21         1.0450   -0.9320   -1.2090 o         1 MOL     -0.791609
    160 O22         0.5740    1.0300   -0.3340 o         1 MOL     -0.791609
    161 H72         5.6000   -0.3950   -0.9220 hn        1 MOL      0.130281
    162 H73         4.8570    2.3660    0.0960 h1        1 MOL      0.091978
    163 H74         2.8780    1.3470    1.1330 hc        1 MOL      0.025919
    164 H75         3.4770   -0.1880    0.6360 hc        1 MOL      0.025919
    165 H76         3.3960    0.1250   -1.6460 hc        1 MOL     -0.067590
    166 H77         2.7630    1.7650   -1.4480 hc        1 MOL     -0.067590
    167 N15         6.0680    0.1050    1.9810 n         1 MOL     -0.057439
    168 C54         6.8690    0.0160    3.1580 c3        1 MOL     -0.488287
    169 H78         6.9940   -1.0320    3.4330 h1        1 MOL      0.157252
    170 H79         7.8460    0.4600    2.9680 h1        1 MOL      0.157252
    171 H80         6.3800    0.5490    3.9720 h1        1 MOL      0.157252
    172 H81         5.9420   -0.7560    1.4700 hn        1 MOL      0.127439
    173 Ca1        -1.4810   -0.0370   -1.3800 Ca        1 MOL      1.786451
    174 O23        -0.8210   -0.9930   -3.7980 oh        1 MOL     -0.827204
    175 H82         0.0540   -1.1660   -4.1380 ho        1 MOL      0.412668
    176 H83        -1.3570   -0.8430   -4.5740 ho        1 MOL      0.412668
@<TRIPOS>BOND
     1    1    2 1   
     2    1    4 1   
     3    1    5 1   
     4    1    6 1   
     5    2    3 2   
     6    2    7 1   
     7    7    8 1   
     8    7   15 1   
     9    8    9 1   
    10    8   11 1   
    11    8   16 1   
    12    9   10 2   
    13    9   19 1   
    14   11   12 1   
    15   11   17 1   
    16   11   18 1   
    17   12   13 1   
    18   12   14 1   
    19   19   20 1   
    20   19   28 1   
    21   20   21 1   
    22   20   23 1   
    23   20   29 1   
    24   21   22 2   
    25   21   41 1   
    26   23   24 1   
    27   23   30 1   
    28   23   31 1   
    29   24   25 1   
    30   24   32 1   
    31   24   33 1   
    32   25   26 1   
    33   25   34 1   
    34   25   35 1   
    35   26   27 1   
    36   26   36 1   
    37   26   37 1   
    38   27   38 1   
    39   27   39 1   
    40   27   40 1   
    41   41   42 1   
    42   41   49 1   
    43   42   43 1   
    44   42   45 1   
    45   42   50 1   
    46   43   44 2   
    47   43   53 1   
    48   45   46 1   
    49   45   51 1   
    50   45   52 1   
    51   46   47 1   
    52   46   48 1   
    53   53   54 1   
    54   53   57 1   
    55   54   55 1   
    56   54   58 1   
    57   54   59 1   
    58   55   56 2   
    59   55   60 1   
    60   60   61 1   
    61   60   68 1   
    62   61   62 1   
    63   61   64 1   
    64   61   69 1   
    65   62   63 2   
    66   62   74 1   
    67   64   65 1   
    68   64   70 1   
    69   64   71 1   
    70   65   66 1   
    71   65   67 2   
    72   66   72 1   
    73   66   73 1   
    74   74   75 1   
    75   74   78 1   
    76   75   76 1   
    77   75   79 1   
    78   75   80 1   
    79   76   77 2   
    80   76   81 1   
    81   81   82 1   
    82   81   93 1   
    83   82   83 1   
    84   82   85 1   
    85   82   94 1   
    86   83   84 2   
    87   83  102 1   
    88   85   86 1   
    89   85   95 1   
    90   85   96 1   
    91   86   87 ar  
    92   86   88 ar  
    93   87   89 ar  
    94   87   97 1   
    95   88   90 ar  
    96   88   98 1   
    97   89   91 ar  
    98   89   99 1   
    99   90   91 ar  
   100   90  100 1   
   101   91   92 1   
   102   92  101 1   
   103  102  103 1   
   104  102  110 1   
   105  103  104 1   
   106  103  106 1   
   107  103  111 1   
   108  104  105 2   
   109  104  121 1   
   110  106  107 1   
   111  106  108 1   
   112  106  112 1   
   113  107  109 1   
   114  107  113 1   
   115  107  114 1   
   116  108  115 1   
   117  108  116 1   
   118  108  117 1   
   119  109  118 1   
   120  109  119 1   
   121  109  120 1   
   122  121  122 1   
   123  121  127 1   
   124  122  123 1   
   125  122  125 1   
   126  122  128 1   
   127  123  124 2   
   128  123  132 1   
   129  125  126 1   
   130  125  129 1   
   131  125  130 1   
   132  126  131 1   
   133  132  133 1   
   134  132  137 1   
   135  133  134 1   
   136  133  136 1   
   137  133  138 1   
   138  134  135 2   
   139  134  142 1   
   140  136  139 1   
   141  136  140 1   
   142  136  141 1   
   143  142  143 1   
   144  142  147 1   
   145  143  144 1   
   146  143  146 1   
   147  143  148 1   
   148  144  145 2   
   149  144  152 1   
   150  146  149 1   
   151  146  150 1   
   152  146  151 1   
   153  152  153 1   
   154  152  161 1   
   155  153  154 1   
   156  153  156 1   
   157  153  162 1   
   158  154  155 2   
   159  154  167 1   
   160  156  157 1   
   161  156  163 1   
   162  156  164 1   
   163  157  158 1   
   164  157  165 1   
   165  157  166 1   
   166  158  159 1   
   167  158  160 1   
   168  167  168 1   
   169  167  172 1   
   170  168  169 1   
   171  168  170 1   
   172  168  171 1   
   173  174  175 1   
   174  174  176 1   
@<TRIPOS>SUBSTRUCTURE
     1 MOL         1 TEMP              0 ****  ****    0 ROOT
