@<TRIPOS>MOLECULE
MOL
  189   185     1     0     0
SMALL
resp


@<TRIPOS>ATOM
      1 C1         -0.4210    1.7860    6.5690 c3        1 MOL     -0.299413
      2 C2         -0.7430    1.8400    5.0440 c         1 MOL      0.724428
      3 O1          0.1560    1.9890    4.2000 o         1 MOL     -0.623078
      4 H1         -1.2420    2.2340    7.1290 hc        1 MOL      0.080171
      5 H2         -0.2950    0.7480    6.8780 hc        1 MOL      0.080171
      6 H3          0.4970    2.3380    6.7670 hc        1 MOL      0.080171
      7 N1         -2.0190    1.4960    4.6910 n         1 MOL     -0.673030
      8 C3         -2.5010    1.5100    3.2660 c3        1 MOL      0.304383
      9 C4         -2.4670    2.9620    2.7960 c         1 MOL      0.393021
     10 O2         -3.0950    3.8900    3.3530 o         1 MOL     -0.551654
     11 C5         -3.9340    0.8500    3.0590 c3        1 MOL     -0.379965
     12 C6         -4.2000    0.6250    1.5060 c         1 MOL      0.889832
     13 O3         -3.2330    0.9080    0.7220 o         1 MOL     -0.681642
     14 O4         -5.3040    0.1550    1.1060 o         1 MOL     -0.681642
     15 H4         -2.7010    1.2900    5.4040 hn        1 MOL      0.342724
     16 H5         -1.7870    0.8710    2.7320 h1        1 MOL      0.022171
     17 H6         -4.7810    1.4170    3.4390 hc        1 MOL      0.089466
     18 H7         -3.8380   -0.1700    3.4330 hc        1 MOL      0.089466
     19 N2         -1.6860    3.2550    1.7580 n         1 MOL     -0.153517
     20 C7         -1.4880    4.5920    1.2230 c3        1 MOL      0.005018
     21 C8         -2.6410    5.0190    0.2850 c         1 MOL      0.522688
     22 O5         -3.1380    6.1770    0.3950 o         1 MOL     -0.569500
     23 C9         -0.0700    4.7330    0.7770 c3        1 MOL      0.162763
     24 C10         0.2410    6.2360    0.6340 c3        1 MOL     -0.278869
     25 C11         1.7510    6.5860    0.6520 c3        1 MOL      0.112394
     26 C12         2.5350    6.0690   -0.5270 c3        1 MOL      0.144012
     27 N3          3.9590    6.2220   -0.4540 n4        1 MOL     -0.674727
     28 H8         -1.1720    2.4930    1.3460 hn        1 MOL      0.152408
     29 H9         -1.6620    5.2850    2.0510 h1        1 MOL      0.059538
     30 H10         0.0770    4.2250   -0.1730 hc        1 MOL     -0.024547
     31 H11         0.5280    4.3140    1.5970 hc        1 MOL     -0.024547
     32 H12        -0.2780    6.7420    1.4480 hc        1 MOL      0.071703
     33 H13        -0.2990    6.6200   -0.2310 hc        1 MOL      0.071703
     34 H14         2.1320    6.2810    1.6300 hc        1 MOL      0.033584
     35 H15         1.7400    7.6750    0.7170 hc        1 MOL      0.033584
     36 H16         2.1990    6.4330   -1.5000 hx        1 MOL      0.062977
     37 H17         2.3500    4.9940   -0.4440 hx        1 MOL      0.062977
     38 H18         4.2190    5.9720    0.4920 hn        1 MOL      0.335995
     39 H19         4.4530    5.5710   -1.0460 hn        1 MOL      0.335995
     40 H20         4.2850    7.1740   -0.5340 hn        1 MOL      0.335995
     41 N4         -3.1400    4.1040   -0.5830 n         1 MOL     -0.156308
     42 C13        -4.0270    4.5490   -1.7020 c3        1 MOL     -0.193779
     43 C14        -5.3630    3.7820   -1.5980 c         1 MOL      0.474683
     44 O6         -6.3170    4.2080   -2.2770 o         1 MOL     -0.497450
     45 C15        -3.3340    4.1920   -3.0410 c3        1 MOL     -0.184782
     46 C16        -2.8660    2.7910   -3.2320 c         1 MOL      0.836782
     47 O7         -3.0820    1.8240   -2.4980 o         1 MOL     -0.687346
     48 O8         -2.1230    2.5980   -4.2390 o         1 MOL     -0.687346
     49 H21        -2.8280    3.1420   -0.5510 hn        1 MOL      0.054863
     50 H22        -4.1010    5.6410   -1.6490 h1        1 MOL      0.169487
     51 H23        -2.4990    4.8820   -3.1440 hc        1 MOL      0.069042
     52 H24        -3.9430    4.3380   -3.9320 hc        1 MOL      0.069042
     53 N5         -5.5580    2.9120   -0.5690 n         1 MOL     -0.182604
     54 C17        -6.9390    2.4350   -0.2610 c3        1 MOL     -0.156035
     55 C18        -7.4470    1.2830   -1.0830 c         1 MOL      0.520048
     56 O9         -8.5370    1.3620   -1.7100 o         1 MOL     -0.545876
     57 H25        -4.8610    2.8160    0.1460 hn        1 MOL      0.174216
     58 H26        -7.6610    3.2360   -0.4500 h1        1 MOL      0.095113
     59 H27        -6.9500    2.1650    0.7890 h1        1 MOL      0.095113
     60 N6         -6.6240    0.2520   -1.2680 n         1 MOL     -0.136912
     61 C19        -6.9350   -0.9750   -1.9750 c3        1 MOL      0.023243
     62 C20        -7.0330   -2.1800   -1.0120 c         1 MOL      0.273208
     63 O10        -7.5400   -3.2710   -1.3860 o         1 MOL     -0.502979
     64 C21        -5.9660   -1.2020   -3.1370 c3        1 MOL     -0.185696
     65 C22        -4.4800   -1.3520   -2.6210 c         1 MOL      0.794700
     66 O11        -4.1960   -1.7510   -1.5130 o         1 MOL     -0.728215
     67 O12        -3.5890   -1.0740   -3.4460 o         1 MOL     -0.728215
     68 H28        -5.8300    0.1360   -0.6510 hn        1 MOL     -0.030577
     69 H29        -7.8930   -0.8880   -2.4990 h1        1 MOL      0.110814
     70 H30        -6.0980   -0.3250   -3.7690 hc        1 MOL      0.079796
     71 H31        -6.2060   -2.0660   -3.7580 hc        1 MOL      0.079796
     72 N7         -6.7000   -2.0200    0.2270 n         1 MOL     -0.069963
     73 C23        -6.7980   -3.1340    1.1780 c3        1 MOL     -0.250039
     74 C24        -5.5400   -3.9760    1.3340 c         1 MOL      0.585105
     75 O13        -5.6390   -5.0970    1.8200 o         1 MOL     -0.571324
     76 H32        -6.3780   -1.1080    0.5060 hn        1 MOL      0.210827
     77 H33        -7.6720   -3.7200    0.9050 h1        1 MOL      0.123486
     78 H34        -6.9720   -2.6150    2.1200 h1        1 MOL      0.123486
     79 N8         -4.4490   -3.5810    0.7140 n         1 MOL     -0.272915
     80 C25        -3.1400   -4.3880    0.6440 c3        1 MOL     -0.333011
     81 C26        -1.9520   -3.5220    0.8320 c         1 MOL      0.971863
     82 O14        -1.9960   -2.3260    0.6660 o         1 MOL     -0.792996
     83 C27        -3.0970   -5.1360   -0.6660 c3        1 MOL      0.603927
     84 C28        -3.6950   -6.5690   -0.5920 c3        1 MOL     -0.615583
     85 O15        -3.6470   -4.3750   -1.7530 oh        1 MOL     -0.675175
     86 H35        -4.5170   -2.7180    0.2040 hn        1 MOL      0.176672
     87 H36        -3.0370   -5.1320    1.4310 h1        1 MOL      0.116954
     88 H37        -2.0600   -5.3230   -0.9420 h1        1 MOL     -0.044694
     89 H38        -4.1560   -3.6860   -1.3180 ho        1 MOL      0.462689
     90 H39        -4.7610   -6.4940   -0.3820 hc        1 MOL      0.163212
     91 H40        -3.4230   -7.1130   -1.4980 hc        1 MOL      0.163212
     92 H41        -3.2320   -7.0890    0.2400 hc        1 MOL      0.163212
     93 N9         -0.8380   -4.1790    1.1410 n         1 MOL     -0.751469
     94 C29         0.4650   -3.5410    1.3790 c3        1 MOL      0.236272
     95 C30         1.4830   -3.8800    0.2130 c         1 MOL      0.359715
     96 O16         1.9120   -5.0180    0.0160 o         1 MOL     -0.513776
     97 C31         1.0200   -3.9700    2.7280 c3        1 MOL      0.130779
     98 C32         0.1790   -3.4550    3.9260 c3        1 MOL     -0.283520
     99 C33         2.5160   -3.6020    2.7670 c3        1 MOL     -0.217612
    100 C34         0.3430   -1.9250    4.1780 c3        1 MOL      0.086657
    101 H42        -0.9090   -5.1600    1.3680 hn        1 MOL      0.312469
    102 H43         0.2740   -2.4730    1.2860 h1        1 MOL      0.138606
    103 H44         0.9830   -5.0530    2.7900 hc        1 MOL      0.007415
    104 H45         0.4270   -4.0400    4.8150 hc        1 MOL      0.073202
    105 H46        -0.8890   -3.6190    3.7570 hc        1 MOL      0.073202
    106 H47         2.5390   -2.5210    2.6320 hc        1 MOL      0.039480
    107 H48         2.8460   -3.6320    3.8040 hc        1 MOL      0.039480
    108 H49         3.2260   -4.1730    2.1630 hc        1 MOL      0.039480
    109 H50         1.3490   -1.6190    4.4400 hc        1 MOL     -0.006946
    110 H51         0.1690   -1.4240    3.2290 hc        1 MOL     -0.006946
    111 H52        -0.2940   -1.5370    4.9720 hc        1 MOL     -0.006946
    112 N10         1.8880   -2.8110   -0.4500 n         1 MOL     -0.069013
    113 C35         2.9270   -2.8680   -1.4350 c3        1 MOL     -0.141053
    114 C36         4.3120   -2.7980   -0.8080 c         1 MOL      0.406872
    115 O17         4.5290   -2.3610    0.2960 o         1 MOL     -0.253684
    116 C37         2.8260   -1.6000   -2.3210 c3        1 MOL      0.308739
    117 C38         1.5500   -1.5880   -3.1430 c3        1 MOL     -0.021705
    118 O18         2.8060   -0.3830   -1.6030 oh        1 MOL     -0.582246
    119 H53         1.3920   -1.9390   -0.4760 hn        1 MOL      0.044344
    120 H54         2.7670   -3.7530   -2.0560 h1        1 MOL      0.098352
    121 H55         3.5940   -1.6700   -3.0900 h1        1 MOL      0.025499
    122 H56         2.0020   -0.4750   -1.0960 ho        1 MOL      0.434509
    123 H57         1.4480   -2.5090   -3.7190 hc        1 MOL     -0.003073
    124 H58         0.6960   -1.4770   -2.4730 hc        1 MOL     -0.003073
    125 H59         1.5760   -0.8440   -3.9410 hc        1 MOL     -0.003073
    126 N11         5.3480   -3.0010   -1.6620 n         1 MOL     -0.365958
    127 C39         6.8050   -2.9080   -1.4200 c3        1 MOL     -0.038041
    128 C40         7.2220   -1.5400   -0.8200 c         1 MOL      0.491120
    129 O19         7.8880   -1.4620    0.2260 o         1 MOL     -0.530706
    130 C41         7.5390   -3.1870   -2.7380 c3        1 MOL      0.420241
    131 C42         8.9940   -3.6240   -2.3540 c3        1 MOL     -0.332331
    132 O20         7.0720   -4.2660   -3.4940 oh        1 MOL     -0.555455
    133 H60         5.1200   -3.3160   -2.6000 hn        1 MOL      0.200365
    134 H61         7.0540   -3.7230   -0.7280 h1        1 MOL      0.113581
    135 H62         7.5030   -2.2070   -3.2170 h1        1 MOL     -0.069695
    136 H63         6.4180   -3.9210   -4.1010 ho        1 MOL      0.368435
    137 H64         9.0420   -4.4570   -1.6610 hc        1 MOL      0.097967
    138 H65         9.5280   -3.8340   -3.2890 hc        1 MOL      0.097967
    139 H66         9.3230   -2.7150   -1.8630 hc        1 MOL      0.097967
    140 N12         6.5540   -0.4180   -1.1810 n         1 MOL     -0.581134
    141 C43         6.6770    0.9280   -0.5440 c3        1 MOL      0.904210
    142 C44         5.9640    1.0460    0.7790 c         1 MOL      0.231144
    143 O21         6.4980    1.7140    1.6900 o         1 MOL     -0.533560
    144 C45         6.4470    1.9350   -1.5970 c3        1 MOL     -0.487001
    145 C46         7.5620    2.0570   -2.6580 c3        1 MOL     -0.032497
    146 C47         8.8900    2.6750   -2.2430 c3        1 MOL     -0.518629
    147 C48         8.6660    3.8490   -1.3110 c3        1 MOL      0.205026
    148 N13         8.0830    4.9840   -2.0540 n4        1 MOL      0.097029
    149 H67         5.8520   -0.5120   -1.9040 hn        1 MOL      0.239167
    150 H68         7.7270    1.0000   -0.2640 h1        1 MOL     -0.094132
    151 H69         6.2520    2.9380   -1.1980 hc        1 MOL      0.040330
    152 H70         5.5310    1.7030   -2.1580 hc        1 MOL      0.040330
    153 H71         7.1210    2.6070   -3.4870 hc        1 MOL      0.089568
    154 H72         7.8140    1.1130   -3.1370 hc        1 MOL      0.089568
    155 H73         9.5120    2.9570   -3.0870 hc        1 MOL      0.204013
    156 H74         9.3530    1.8910   -1.6570 hc        1 MOL      0.204013
    157 H75         9.6210    4.2010   -0.9260 hx        1 MOL      0.025853
    158 H76         8.0760    3.5920   -0.4240 hx        1 MOL      0.025853
    159 H77         7.0960    4.9060   -2.2760 hn        1 MOL      0.133613
    160 H78         8.0400    5.8770   -1.5870 hn        1 MOL      0.133613
    161 H79         8.5740    5.1190   -2.9260 hn        1 MOL      0.133613
    162 N14         4.8120    0.4480    0.8860 n         1 MOL      0.046812
    163 C49         3.9900    0.4910    2.0750 c3        1 MOL     -0.198915
    164 C50         4.5620   -0.4370    3.2100 c         1 MOL      0.466892
    165 O22         4.5830   -0.0020    4.3480 o         1 MOL     -0.537198
    166 C51         2.4930    0.3180    1.8330 c3        1 MOL      0.042881
    167 C52         1.9000    1.2950    0.7940 c3        1 MOL     -0.137617
    168 C53         0.5670    0.8080    0.2040 c         1 MOL      0.519786
    169 O23         0.4360   -0.3570   -0.0790 o         1 MOL     -0.610356
    170 O24        -0.3270    1.6210   -0.0760 o         1 MOL     -0.610356
    171 H80         4.5810   -0.2930    0.2510 hn        1 MOL     -0.214685
    172 H81         4.1400    1.4750    2.5310 h1        1 MOL      0.102361
    173 H82         1.9630    0.3550    2.7800 hc        1 MOL      0.083917
    174 H83         2.4100   -0.6670    1.3760 hc        1 MOL      0.083917
    175 H84         2.6790    1.3850    0.0390 hc        1 MOL      0.040854
    176 H85         1.7560    2.2190    1.3500 hc        1 MOL      0.040854
    177 N15         5.1960   -1.5970    2.9270 n         1 MOL      0.027794
    178 C54         6.0390   -2.2860    3.8030 c3        1 MOL     -0.263838
    179 H86         6.2850   -3.2590    3.3780 h1        1 MOL      0.090766
    180 H87         6.9530   -1.7130    3.9540 h1        1 MOL      0.090766
    181 H88         5.5340   -2.4250    4.7600 h1        1 MOL      0.090766
    182 H89         5.1830   -1.9110    1.9690 hn        1 MOL      0.097021
    183 Ca1        -1.9630   -0.3210   -1.2250 Ca        1 MOL      1.760294
    184 O25        -1.4170   -2.6910   -2.2820 oh        1 MOL     -0.870703
    185 H90        -1.2130   -2.6170   -3.2170 ho        1 MOL      0.413581
    186 H91        -2.0640   -3.3960   -2.2330 ho        1 MOL      0.413581
    187 O26        -0.7080    0.3030   -3.6120 oh        1 MOL     -0.870703
    188 H92        -1.0820    1.1340   -3.9100 ho        1 MOL      0.413581
    189 H93        -0.9750   -0.3340   -4.2840 ho        1 MOL      0.413581
@<TRIPOS>BOND
     1    1    2 1   
     2    1    4 1   
     3    1    5 1   
     4    1    6 1   
     5    2    3 2   
     6    2    7 1   
     7    7    8 1   
     8    7   15 1   
     9    8    9 1   
    10    8   11 1   
    11    8   16 1   
    12    9   10 2   
    13    9   19 1   
    14   11   12 1   
    15   11   17 1   
    16   11   18 1   
    17   12   13 1   
    18   12   14 1   
    19   19   20 1   
    20   19   28 1   
    21   20   21 1   
    22   20   23 1   
    23   20   29 1   
    24   21   22 2   
    25   21   41 1   
    26   23   24 1   
    27   23   30 1   
    28   23   31 1   
    29   24   25 1   
    30   24   32 1   
    31   24   33 1   
    32   25   26 1   
    33   25   34 1   
    34   25   35 1   
    35   26   27 1   
    36   26   36 1   
    37   26   37 1   
    38   27   38 1   
    39   27   39 1   
    40   27   40 1   
    41   41   42 1   
    42   41   49 1   
    43   42   43 1   
    44   42   45 1   
    45   42   50 1   
    46   43   44 2   
    47   43   53 1   
    48   45   46 1   
    49   45   51 1   
    50   45   52 1   
    51   46   47 1   
    52   46   48 1   
    53   53   54 1   
    54   53   57 1   
    55   54   55 1   
    56   54   58 1   
    57   54   59 1   
    58   55   56 2   
    59   55   60 1   
    60   60   61 1   
    61   60   68 1   
    62   61   62 1   
    63   61   64 1   
    64   61   69 1   
    65   62   63 2   
    66   62   72 1   
    67   64   65 1   
    68   64   70 1   
    69   64   71 1   
    70   65   66 1   
    71   65   67 1   
    72   72   73 1   
    73   72   76 1   
    74   73   74 1   
    75   73   77 1   
    76   73   78 1   
    77   74   75 2   
    78   74   79 1   
    79   79   80 1   
    80   79   86 1   
    81   80   81 1   
    82   80   83 1   
    83   80   87 1   
    84   81   82 2   
    85   81   93 1   
    86   83   84 1   
    87   83   85 1   
    88   83   88 1   
    89   84   90 1   
    90   84   91 1   
    91   84   92 1   
    92   85   89 1   
    93   93   94 1   
    94   93  101 1   
    95   94   95 1   
    96   94   97 1   
    97   94  102 1   
    98   95   96 2   
    99   95  112 1   
   100   97   98 1   
   101   97   99 1   
   102   97  103 1   
   103   98  100 1   
   104   98  104 1   
   105   98  105 1   
   106   99  106 1   
   107   99  107 1   
   108   99  108 1   
   109  100  109 1   
   110  100  110 1   
   111  100  111 1   
   112  112  113 1   
   113  112  119 1   
   114  113  114 1   
   115  113  116 1   
   116  113  120 1   
   117  114  115 2   
   118  114  126 1   
   119  116  117 1   
   120  116  118 1   
   121  116  121 1   
   122  117  123 1   
   123  117  124 1   
   124  117  125 1   
   125  118  122 1   
   126  126  127 1   
   127  126  133 1   
   128  127  128 1   
   129  127  130 1   
   130  127  134 1   
   131  128  129 2   
   132  128  140 1   
   133  130  131 1   
   134  130  132 1   
   135  130  135 1   
   136  131  137 1   
   137  131  138 1   
   138  131  139 1   
   139  132  136 1   
   140  140  141 1   
   141  140  149 1   
   142  141  142 1   
   143  141  144 1   
   144  141  150 1   
   145  142  143 2   
   146  142  162 1   
   147  144  145 1   
   148  144  151 1   
   149  144  152 1   
   150  145  146 1   
   151  145  153 1   
   152  145  154 1   
   153  146  147 1   
   154  146  155 1   
   155  146  156 1   
   156  147  148 1   
   157  147  157 1   
   158  147  158 1   
   159  148  159 1   
   160  148  160 1   
   161  148  161 1   
   162  162  163 1   
   163  162  171 1   
   164  163  164 1   
   165  163  166 1   
   166  163  172 1   
   167  164  165 2   
   168  164  177 1   
   169  166  167 1   
   170  166  173 1   
   171  166  174 1   
   172  167  168 1   
   173  167  175 1   
   174  167  176 1   
   175  168  169 1   
   176  168  170 1   
   177  177  178 1   
   178  177  182 1   
   179  178  179 1   
   180  178  180 1   
   181  178  181 1   
   182  184  185 1   
   183  184  186 1   
   184  187  188 1   
   185  187  189 1   
@<TRIPOS>SUBSTRUCTURE
     1 MOL         1 TEMP              0 ****  ****    0 ROOT
