@<TRIPOS>MOLECULE
MOL
  189   185     1     0     0
SMALL
resp


@<TRIPOS>ATOM
      1 C1         -1.0170    2.6370    5.7760 c3        1 MOL     -0.244437
      2 C2         -1.1550    1.9820    4.4300 c         1 MOL      0.667790
      3 O1         -0.1780    1.9160    3.7080 o         1 MOL     -0.598492
      4 H1         -2.0070    2.8320    6.1880 hc        1 MOL      0.058096
      5 H2         -0.4680    1.9770    6.4480 hc        1 MOL      0.058096
      6 H3         -0.4780    3.5780    5.6680 hc        1 MOL      0.058096
      7 N1         -2.3520    1.7540    3.9850 n         1 MOL     -0.602813
      8 C3         -2.6830    1.3860    2.5720 c3        1 MOL      0.117724
      9 C4         -3.1140    2.6290    1.8260 c         1 MOL      0.502160
     10 O2         -4.2220    3.0910    1.9360 o         1 MOL     -0.505215
     11 C5         -3.8810    0.4100    2.4430 c3        1 MOL     -0.103055
     12 C6         -4.4730    0.3230    1.0500 c         1 MOL      0.551795
     13 O3         -5.7340    0.1450    1.0720 o         1 MOL     -0.598384
     14 O4         -3.7750    0.4910    0.0180 o         1 MOL     -0.598384
     15 H4         -3.1550    1.8080    4.6050 hn        1 MOL      0.359454
     16 H5         -1.8020    1.0050    2.0570 h1        1 MOL      0.004308
     17 H6         -4.5260    0.7150    3.2700 hc        1 MOL      0.030446
     18 H7         -3.5690   -0.5900    2.7360 hc        1 MOL      0.030446
     19 N2         -2.1460    3.2760    1.1060 n         1 MOL     -0.239909
     20 C7         -2.2840    4.6410    0.6050 c3        1 MOL      0.035715
     21 C8         -3.0210    4.9050   -0.7410 c         1 MOL      0.313877
     22 O5         -3.7930    5.8860   -0.8850 o         1 MOL     -0.543727
     23 C9         -0.9220    5.3160    0.5200 c3        1 MOL     -0.100349
     24 C10        -0.1830    5.5150    1.8570 c3        1 MOL      0.085890
     25 C11         1.1780    6.1350    1.5750 c3        1 MOL     -0.019820
     26 C12         1.7290    6.4410    2.9790 c3        1 MOL      0.000547
     27 N3          3.1300    6.9530    2.8640 n4        1 MOL     -0.301566
     28 H8         -1.3400    2.7480    0.8040 hn        1 MOL      0.136115
     29 H9         -2.7970    5.2040    1.3940 h1        1 MOL      0.070757
     30 H10        -1.1910    6.2400    0.0060 hc        1 MOL      0.039265
     31 H11        -0.3560    4.7160   -0.2000 hc        1 MOL      0.039265
     32 H12        -0.0200    4.5700    2.3730 hc        1 MOL      0.014401
     33 H13        -0.8130    6.1570    2.4670 hc        1 MOL      0.014401
     34 H14         1.0140    7.0440    1.0140 hc        1 MOL      0.017804
     35 H15         1.8080    5.4030    1.0730 hc        1 MOL      0.017804
     36 H16         1.8120    5.4050    3.3400 hx        1 MOL      0.093351
     37 H17         1.0670    7.0720    3.5660 hx        1 MOL      0.093351
     38 H18         3.5920    7.1190    3.7510 hn        1 MOL      0.308621
     39 H19         3.6730    6.2230    2.4390 hn        1 MOL      0.308621
     40 H20         3.2490    7.8180    2.3620 hn        1 MOL      0.308621
     41 N4         -2.9160    4.0680   -1.7480 n         1 MOL     -0.109331
     42 C13        -3.6110    4.2030   -3.0380 c3        1 MOL      0.059419
     43 C14        -5.0040    3.5450   -3.0430 c         1 MOL      0.440480
     44 O6         -5.9200    3.9360   -3.7180 o         1 MOL     -0.517527
     45 C15        -2.7160    3.5630   -4.0580 c3        1 MOL     -0.345180
     46 C16        -2.0940    2.2610   -3.5830 c         1 MOL      0.768376
     47 O7         -2.8110    1.2200   -3.3550 o         1 MOL     -0.711995
     48 O8         -0.8240    2.2070   -3.4740 o         1 MOL     -0.711995
     49 H21        -2.2750    3.3270   -1.5400 hn        1 MOL      0.149992
     50 H22        -3.8400    5.2370   -3.2900 h1        1 MOL      0.091036
     51 H23        -1.9320    4.2900   -4.2840 hc        1 MOL      0.079923
     52 H24        -3.3630    3.4960   -4.9390 hc        1 MOL      0.079923
     53 N5         -5.1460    2.6040   -2.0500 n         1 MOL     -0.000965
     54 C17        -6.4160    2.1850   -1.4170 c3        1 MOL     -0.260814
     55 C18        -6.8920    0.8660   -2.1330 c         1 MOL      0.564735
     56 O9         -7.7530    0.8170   -3.0200 o         1 MOL     -0.537338
     57 H25        -4.2550    2.2520   -1.7170 hn        1 MOL      0.048086
     58 H26        -7.1590    2.9520   -1.6220 h1        1 MOL      0.125202
     59 H27        -6.3030    2.0860   -0.3380 h1        1 MOL      0.125202
     60 N6         -6.2840   -0.2820   -1.6930 n         1 MOL     -0.398968
     61 C19        -6.6940   -1.6430   -2.1250 c3        1 MOL      0.069778
     62 C20        -6.8090   -2.6960   -0.9620 c         1 MOL      0.456410
     63 O10        -6.8610   -3.9210   -1.1730 o         1 MOL     -0.541052
     64 C21        -5.6200   -2.0920   -3.1070 c3        1 MOL     -0.320591
     65 C22        -4.2070   -2.0400   -2.5780 c         1 MOL      0.783493
     66 O11        -3.2280   -1.9710   -3.2820 o         1 MOL     -0.725571
     67 O12        -4.0070   -2.1320   -1.3300 o         1 MOL     -0.725571
     68 H28        -5.5350   -0.1790   -1.0220 hn        1 MOL      0.213111
     69 H29        -7.6550   -1.8450   -2.6170 h1        1 MOL      0.109229
     70 H30        -5.7650   -1.3880   -3.9350 hc        1 MOL      0.097744
     71 H31        -5.7690   -3.1190   -3.4170 hc        1 MOL      0.097744
     72 N7         -6.8340   -2.2190    0.3000 n         1 MOL     -0.459618
     73 C23        -6.7150   -3.1260    1.4980 c3        1 MOL      0.052774
     74 C24        -5.3660   -3.7120    1.8810 c         1 MOL      0.385601
     75 O13        -5.4070   -4.6260    2.7170 o         1 MOL     -0.571776
     76 H32        -6.6730   -1.2220    0.3960 hn        1 MOL      0.290214
     77 H33        -7.3330   -4.0170    1.3620 h1        1 MOL      0.075838
     78 H34        -7.1630   -2.7010    2.4020 h1        1 MOL      0.075838
     79 N8         -4.2350   -3.3530    1.2950 n         1 MOL     -0.020355
     80 C25        -2.9120   -4.0810    1.3780 c3        1 MOL     -0.367842
     81 C26        -1.7280   -3.1120    1.3660 c         1 MOL      0.693588
     82 O14        -1.8720   -2.0800    0.6880 o         1 MOL     -0.740976
     83 C27        -2.7680   -5.1650    0.2510 c3        1 MOL      0.571132
     84 C28        -3.4990   -6.5440    0.5710 c3        1 MOL     -0.400542
     85 O15        -3.1900   -4.7630   -1.0000 oh        1 MOL     -0.735101
     86 H35        -4.3340   -2.6110    0.6170 hn        1 MOL      0.140556
     87 H36        -2.8480   -4.5350    2.3630 h1        1 MOL      0.107290
     88 H37        -1.7160   -5.4430    0.2540 h1        1 MOL     -0.061469
     89 H38        -3.5660   -3.8790   -1.0340 ho        1 MOL      0.539374
     90 H39        -3.0210   -7.1940    1.3090 hc        1 MOL      0.101472
     91 H40        -4.5040   -6.4290    0.9810 hc        1 MOL      0.101472
     92 H41        -3.4670   -7.1910   -0.3010 hc        1 MOL      0.101472
     93 N9         -0.6040   -3.4790    1.9690 n         1 MOL     -0.490919
     94 C29         0.5760   -2.6150    2.1320 c3        1 MOL      0.105275
     95 C30         1.6610   -3.2760    1.3080 c         1 MOL      0.438060
     96 O16         2.0420   -4.4170    1.6330 o         1 MOL     -0.532575
     97 C31         0.9280   -2.4340    3.6450 c3        1 MOL     -0.009697
     98 C32        -0.1930   -1.7340    4.4480 c3        1 MOL      0.185419
     99 C33         2.2000   -1.6930    3.8630 c3        1 MOL     -0.451086
    100 C34        -0.0330   -1.7370    6.0070 c3        1 MOL     -0.255595
    101 H42        -0.6720   -4.3900    2.4180 hn        1 MOL      0.301541
    102 H43         0.4740   -1.6030    1.7270 h1        1 MOL      0.124224
    103 H44         1.0060   -3.4460    4.0440 hc        1 MOL      0.033243
    104 H45        -1.1380   -2.2560    4.2970 hc        1 MOL     -0.018610
    105 H46        -0.3390   -0.7350    4.0320 hc        1 MOL     -0.018610
    106 H47         2.2270   -0.7280    3.3510 hc        1 MOL      0.102150
    107 H48         2.4690   -1.3780    4.8730 hc        1 MOL      0.102150
    108 H49         3.0660   -2.1400    3.3820 hc        1 MOL      0.102150
    109 H50        -1.0100   -1.5410    6.4280 hc        1 MOL      0.065714
    110 H51         0.3160   -2.7350    6.3030 hc        1 MOL      0.065714
    111 H52         0.6960   -1.0160    6.3680 hc        1 MOL      0.065714
    112 N10         2.0560   -2.5850    0.2610 n         1 MOL     -0.187967
    113 C35         3.2660   -2.8730   -0.5470 c3        1 MOL     -0.084308
    114 C36         4.5960   -2.5800    0.2020 c         1 MOL      0.417994
    115 O17         4.6200   -1.8170    1.1790 o         1 MOL     -0.310374
    116 C37         3.3200   -2.1460   -1.8900 c3        1 MOL      0.203257
    117 C38         2.1650   -2.5550   -2.8060 c3        1 MOL     -0.514959
    118 O18         3.2760   -0.7330   -1.6840 oh        1 MOL     -0.543242
    119 H53         1.5750   -1.7450   -0.0250 hn        1 MOL      0.159256
    120 H54         3.2830   -3.9620   -0.6390 h1        1 MOL      0.087141
    121 H55         4.2110   -2.4280   -2.4550 h1        1 MOL      0.056048
    122 H56         2.3370   -0.5220   -1.6430 ho        1 MOL      0.389350
    123 H57         2.1970   -3.6360   -2.9230 hc        1 MOL      0.141824
    124 H58         1.2060   -2.2750   -2.3510 hc        1 MOL      0.141824
    125 H59         2.1490   -2.0630   -3.7750 hc        1 MOL      0.141824
    126 N11         5.7000   -3.0290   -0.3830 n         1 MOL     -0.431646
    127 C39         7.0690   -2.4420   -0.1240 c3        1 MOL     -0.088219
    128 C40         7.2000   -0.9180   -0.2170 c         1 MOL      0.280049
    129 O19         8.0970   -0.4860    0.5360 o         1 MOL     -0.490445
    130 C41         8.1090   -3.0400   -1.1160 c3        1 MOL      0.216242
    131 C42         8.3760   -4.5220   -0.9270 c3        1 MOL     -0.415204
    132 O20         7.5970   -2.7790   -2.4190 oh        1 MOL     -0.605374
    133 H60         5.6380   -3.6050   -1.2000 hn        1 MOL      0.314791
    134 H61         7.3830   -2.7950    0.8600 h1        1 MOL      0.150013
    135 H62         9.0820   -2.6130   -0.9020 h1        1 MOL      0.069964
    136 H63         8.3580   -2.9270   -2.9950 ho        1 MOL      0.394793
    137 H64         7.5980   -5.1850   -1.3110 hc        1 MOL      0.125471
    138 H65         9.3180   -4.7680   -1.4260 hc        1 MOL      0.125471
    139 H66         8.7250   -4.7830    0.0760 hc        1 MOL      0.125471
    140 N12         6.3780   -0.1580   -0.9530 n         1 MOL     -0.049738
    141 C43         6.4410    1.3160   -0.9010 c3        1 MOL      0.087025
    142 C44         5.6650    1.9230    0.2580 c         1 MOL      0.330232
    143 O21         6.1520    2.8050    0.9340 o         1 MOL     -0.507693
    144 C45         5.9010    1.8770   -2.2200 c3        1 MOL     -0.393356
    145 C46         6.4270    1.3850   -3.5800 c3        1 MOL      0.004454
    146 C47         7.9500    1.3760   -3.7510 c3        1 MOL      0.039675
    147 C48         8.3120    0.5950   -5.0830 c3        1 MOL      0.018779
    148 N13         9.6890    0.8710   -5.6170 n4        1 MOL     -0.237053
    149 H67         5.7350   -0.6310   -1.5690 hn        1 MOL      0.227681
    150 H68         7.4350    1.6990   -0.6730 h1        1 MOL      0.057135
    151 H69         6.1690    2.9420   -2.2060 hc        1 MOL      0.137799
    152 H70         4.8170    1.8200   -2.2410 hc        1 MOL      0.137799
    153 H71         6.0120    2.0090   -4.3660 hc        1 MOL      0.032253
    154 H72         6.0150    0.3790   -3.6400 hc        1 MOL      0.032253
    155 H73         8.3450    0.7730   -2.9340 hc        1 MOL      0.023423
    156 H74         8.3710    2.3810   -3.7130 hc        1 MOL      0.023423
    157 H75         7.6810    0.9680   -5.9000 hx        1 MOL      0.070214
    158 H76         8.2290   -0.4890   -4.9830 hx        1 MOL      0.070214
    159 H77        10.3860    0.8060   -4.8860 hn        1 MOL      0.263073
    160 H78         9.8370    0.1850   -6.3390 hn        1 MOL      0.263073
    161 H79         9.8430    1.8100   -5.9520 hn        1 MOL      0.263073
    162 N14         4.5440    1.2940    0.6730 n         1 MOL     -0.133410
    163 C49         3.6070    1.6800    1.8070 c3        1 MOL     -0.410283
    164 C50         4.2140    1.2400    3.1860 c         1 MOL      0.557767
    165 O22         4.2040    2.0100    4.1160 o         1 MOL     -0.574017
    166 C51         2.1740    1.0820    1.4170 c3        1 MOL      0.066619
    167 C52         1.6510    1.7620    0.1360 c3        1 MOL     -0.210812
    168 C53         0.4820    0.8660   -0.4150 c         1 MOL      0.695806
    169 O23         0.6040   -0.2990   -0.8530 o         1 MOL     -0.628345
    170 O24        -0.5910    1.4960   -0.4440 o         1 MOL     -0.628345
    171 H80         4.2110    0.4640    0.2070 hn        1 MOL      0.186106
    172 H81         3.4200    2.7520    1.8190 h1        1 MOL      0.206615
    173 H82         1.4440    1.3710    2.1790 hc        1 MOL      0.064961
    174 H83         2.2710    0.0210    1.2130 hc        1 MOL      0.064961
    175 H84         2.3890    1.8160   -0.6670 hc        1 MOL      0.041578
    176 H85         1.2820    2.7690    0.2960 hc        1 MOL      0.041578
    177 N15         4.8320    0.0520    3.2910 n         1 MOL     -0.022017
    178 C54         5.5500   -0.3470    4.5390 c3        1 MOL     -0.352379
    179 H86         6.6160   -0.4300    4.3340 h1        1 MOL      0.123354
    180 H87         5.3860    0.4070    5.3090 h1        1 MOL      0.123354
    181 H88         5.1710   -1.3090    4.8850 h1        1 MOL      0.123354
    182 H89         4.9610   -0.5190    2.4690 hn        1 MOL      0.108072
    183 Ca1        -1.8560   -0.6170   -1.3960 Ca        1 MOL      1.724508
    184 O25        -0.9000   -3.4650   -1.6730 oh        1 MOL     -0.814149
    185 H90        -1.4750   -4.1980   -1.4510 ho        1 MOL      0.392407
    186 H91        -0.5680   -3.6820   -2.5510 ho        1 MOL      0.392407
    187 O26        -0.5300   -0.5940   -3.7020 oh        1 MOL     -0.814149
    188 H92        -0.3220    0.2500   -4.0930 ho        1 MOL      0.392407
    189 H93        -0.9940   -1.0740   -4.3910 ho        1 MOL      0.392407
@<TRIPOS>BOND
     1    1    2 1   
     2    1    4 1   
     3    1    5 1   
     4    1    6 1   
     5    2    3 2   
     6    2    7 1   
     7    7    8 1   
     8    7   15 1   
     9    8    9 1   
    10    8   11 1   
    11    8   16 1   
    12    9   10 2   
    13    9   19 1   
    14   11   12 1   
    15   11   17 1   
    16   11   18 1   
    17   12   13 1   
    18   12   14 1   
    19   19   20 1   
    20   19   28 1   
    21   20   21 1   
    22   20   23 1   
    23   20   29 1   
    24   21   22 2   
    25   21   41 1   
    26   23   24 1   
    27   23   30 1   
    28   23   31 1   
    29   24   25 1   
    30   24   32 1   
    31   24   33 1   
    32   25   26 1   
    33   25   34 1   
    34   25   35 1   
    35   26   27 1   
    36   26   36 1   
    37   26   37 1   
    38   27   38 1   
    39   27   39 1   
    40   27   40 1   
    41   41   42 1   
    42   41   49 1   
    43   42   43 1   
    44   42   45 1   
    45   42   50 1   
    46   43   44 2   
    47   43   53 1   
    48   45   46 1   
    49   45   51 1   
    50   45   52 1   
    51   46   47 1   
    52   46   48 1   
    53   53   54 1   
    54   53   57 1   
    55   54   55 1   
    56   54   58 1   
    57   54   59 1   
    58   55   56 2   
    59   55   60 1   
    60   60   61 1   
    61   60   68 1   
    62   61   62 1   
    63   61   64 1   
    64   61   69 1   
    65   62   63 2   
    66   62   72 1   
    67   64   65 1   
    68   64   70 1   
    69   64   71 1   
    70   65   66 1   
    71   65   67 1   
    72   72   73 1   
    73   72   76 1   
    74   73   74 1   
    75   73   77 1   
    76   73   78 1   
    77   74   75 2   
    78   74   79 1   
    79   79   80 1   
    80   79   86 1   
    81   80   81 1   
    82   80   83 1   
    83   80   87 1   
    84   81   82 2   
    85   81   93 1   
    86   83   84 1   
    87   83   85 1   
    88   83   88 1   
    89   84   90 1   
    90   84   91 1   
    91   84   92 1   
    92   85   89 1   
    93   93   94 1   
    94   93  101 1   
    95   94   95 1   
    96   94   97 1   
    97   94  102 1   
    98   95   96 2   
    99   95  112 1   
   100   97   98 1   
   101   97   99 1   
   102   97  103 1   
   103   98  100 1   
   104   98  104 1   
   105   98  105 1   
   106   99  106 1   
   107   99  107 1   
   108   99  108 1   
   109  100  109 1   
   110  100  110 1   
   111  100  111 1   
   112  112  113 1   
   113  112  119 1   
   114  113  114 1   
   115  113  116 1   
   116  113  120 1   
   117  114  115 2   
   118  114  126 1   
   119  116  117 1   
   120  116  118 1   
   121  116  121 1   
   122  117  123 1   
   123  117  124 1   
   124  117  125 1   
   125  118  122 1   
   126  126  127 1   
   127  126  133 1   
   128  127  128 1   
   129  127  130 1   
   130  127  134 1   
   131  128  129 2   
   132  128  140 1   
   133  130  131 1   
   134  130  132 1   
   135  130  135 1   
   136  131  137 1   
   137  131  138 1   
   138  131  139 1   
   139  132  136 1   
   140  140  141 1   
   141  140  149 1   
   142  141  142 1   
   143  141  144 1   
   144  141  150 1   
   145  142  143 2   
   146  142  162 1   
   147  144  145 1   
   148  144  151 1   
   149  144  152 1   
   150  145  146 1   
   151  145  153 1   
   152  145  154 1   
   153  146  147 1   
   154  146  155 1   
   155  146  156 1   
   156  147  148 1   
   157  147  157 1   
   158  147  158 1   
   159  148  159 1   
   160  148  160 1   
   161  148  161 1   
   162  162  163 1   
   163  162  171 1   
   164  163  164 1   
   165  163  166 1   
   166  163  172 1   
   167  164  165 2   
   168  164  177 1   
   169  166  167 1   
   170  166  173 1   
   171  166  174 1   
   172  167  168 1   
   173  167  175 1   
   174  167  176 1   
   175  168  169 1   
   176  168  170 1   
   177  177  178 1   
   178  177  182 1   
   179  178  179 1   
   180  178  180 1   
   181  178  181 1   
   182  184  185 1   
   183  184  186 1   
   184  187  188 1   
   185  187  189 1   
@<TRIPOS>SUBSTRUCTURE
     1 MOL         1 TEMP              0 ****  ****    0 ROOT
