@<TRIPOS>MOLECULE
MOL
  189   185     1     0     0
SMALL
resp


@<TRIPOS>ATOM
      1 C1          0.6890    3.0850   -4.4050 c3        1 MOL     -0.314293
      2 C2          1.4880    2.8200   -3.1200 c         1 MOL      0.759847
      3 O1          1.2020    3.3980   -2.1070 o         1 MOL     -0.600265
      4 H1         -0.3390    2.7500   -4.2680 hc        1 MOL      0.075907
      5 H2          0.6960    4.1530   -4.6240 hc        1 MOL      0.075907
      6 H3          1.1410    2.5400   -5.2340 hc        1 MOL      0.075907
      7 N1          2.5460    2.0230   -3.1850 n         1 MOL     -0.762638
      8 C3          3.2730    1.4410   -1.9760 c3        1 MOL      0.468633
      9 C4          4.3100    2.3280   -1.3230 c         1 MOL      0.244440
     10 O2          5.5020    2.0060   -1.1730 o         1 MOL     -0.441003
     11 C5          3.7100    0.0630   -2.4120 c3        1 MOL     -0.115779
     12 C6          4.1990   -0.6650   -1.1880 c         1 MOL      0.554570
     13 O3          3.6270   -0.6810   -0.0790 o         1 MOL     -0.642895
     14 O4          5.1740   -1.4510   -1.4060 o         1 MOL     -0.642895
     15 H4          2.8490    1.6180   -4.0580 hn        1 MOL      0.331470
     16 H5          2.4380    1.2620   -1.2980 h1        1 MOL     -0.022822
     17 H6          4.4510    0.2700   -3.1890 hc        1 MOL      0.029376
     18 H7          2.8860   -0.4480   -2.9190 hc        1 MOL      0.029376
     19 N2          3.9210    3.5830   -0.9920 n         1 MOL     -0.244406
     20 C7          4.8280    4.5820   -0.3840 c3        1 MOL      0.036798
     21 C8          5.1910    4.2160    1.0710 c         1 MOL      0.366514
     22 O5          6.1250    4.6940    1.6740 o         1 MOL     -0.536337
     23 C9          4.0820    5.9540   -0.3780 c3        1 MOL     -0.404133
     24 C10         4.0880    6.6160   -1.7550 c3        1 MOL      0.231833
     25 C11         5.4700    7.1690   -2.1930 c3        1 MOL     -0.106459
     26 C12         5.2270    7.7220   -3.5980 c3        1 MOL      0.200983
     27 N3          6.3930    8.4570   -4.1530 n4        1 MOL     -0.458284
     28 H8          2.9370    3.7890   -1.0930 hn        1 MOL      0.280530
     29 H9          5.6990    4.6920   -1.0270 h1        1 MOL      0.097936
     30 H10         4.6480    6.6080    0.2850 hc        1 MOL      0.131642
     31 H11         3.0440    5.8610   -0.0720 hc        1 MOL      0.131642
     32 H12         3.3360    7.4030   -1.8250 hc        1 MOL     -0.028882
     33 H13         3.8210    5.8620   -2.4940 hc        1 MOL     -0.028882
     34 H14         6.1790    6.3390   -2.2040 hc        1 MOL      0.045508
     35 H15         5.7420    8.0560   -1.6150 hc        1 MOL      0.045508
     36 H16         4.2960    8.2920   -3.6280 hx        1 MOL      0.038206
     37 H17         5.0280    6.8680   -4.2530 hx        1 MOL      0.038206
     38 H18         6.2440    8.8990   -5.0540 hn        1 MOL      0.342818
     39 H19         6.5790    9.2870   -3.6160 hn        1 MOL      0.342818
     40 H20         7.2580    7.9660   -4.3120 hn        1 MOL      0.342818
     41 N4          4.3820    3.3950    1.6970 n         1 MOL     -0.145583
     42 C13         4.6880    2.7780    2.9970 c3        1 MOL      0.009773
     43 C14         5.5580    1.5080    2.9340 c         1 MOL      0.317373
     44 O6          6.1250    1.0580    4.0030 o         1 MOL     -0.517814
     45 C15         3.4570    2.6470    3.8270 c3        1 MOL     -0.215565
     46 C16         2.3280    1.8680    3.1160 c         1 MOL      0.765328
     47 O7          2.5420    0.9360    2.2660 o         1 MOL     -0.732962
     48 O8          1.1340    2.1350    3.3970 o         1 MOL     -0.732962
     49 H21         3.4770    3.2260    1.2820 hn        1 MOL      0.183268
     50 H22         5.3350    3.4450    3.5800 h1        1 MOL      0.102904
     51 H23         2.9840    3.5680    4.1460 hc        1 MOL      0.052917
     52 H24         3.7880    2.1110    4.7260 hc        1 MOL      0.052917
     53 N5          5.8550    1.0230    1.7460 n         1 MOL      0.102097
     54 C17         6.8860    0.0390    1.4320 c3        1 MOL     -0.299916
     55 C18         6.6530   -1.3060    2.0540 c         1 MOL      0.714561
     56 O9          7.4550   -1.6710    2.9260 o         1 MOL     -0.599126
     57 H25         5.3590    1.4200    0.9620 hn        1 MOL      0.038062
     58 H26         7.9050    0.4040    1.5170 h1        1 MOL      0.110207
     59 H27         6.7330   -0.1630    0.3750 h1        1 MOL      0.110207
     60 N6          5.7820   -2.1620    1.5580 n         1 MOL     -0.390391
     61 C19         5.6750   -3.5670    1.9090 c3        1 MOL      0.032734
     62 C20         5.6180   -4.6280    0.8140 c         1 MOL      0.354240
     63 O10         5.7060   -5.8180    1.1090 o         1 MOL     -0.519703
     64 C21         4.5040   -3.7630    2.9020 c3        1 MOL     -0.189521
     65 C22         3.2200   -3.0320    2.3940 c         1 MOL      0.739895
     66 O11         2.7390   -3.4500    1.3160 o         1 MOL     -0.717726
     67 O12         2.6120   -2.1910    3.0710 o         1 MOL     -0.717726
     68 H28         5.0880   -1.8420    0.8960 hn        1 MOL      0.106448
     69 H29         6.5230   -3.9030    2.5050 h1        1 MOL      0.102729
     70 H30         4.7920   -3.3380    3.8610 hc        1 MOL      0.064479
     71 H31         4.1780   -4.7860    3.1100 hc        1 MOL      0.064479
     72 N7          5.3690   -4.1650   -0.4240 n         1 MOL     -0.196699
     73 C23         5.2270   -5.0690   -1.5340 c3        1 MOL     -0.071257
     74 C24         3.7730   -5.6230   -1.5990 c         1 MOL      0.576539
     75 O13         3.5740   -6.6120   -2.2380 o         1 MOL     -0.580184
     76 H32         5.1970   -3.1650   -0.4700 hn        1 MOL      0.222840
     77 H33         5.9160   -5.9010   -1.4120 h1        1 MOL      0.069399
     78 H34         5.6090   -4.6710   -2.4660 h1        1 MOL      0.069399
     79 N8          2.8130   -4.8770   -1.0500 n         1 MOL     -0.442280
     80 C25         1.4090   -5.1340   -1.2550 c3        1 MOL     -0.034462
     81 C26         0.5820   -3.8050   -1.4560 c         1 MOL      0.760877
     82 O14         0.9630   -2.7720   -1.0200 o         1 MOL     -0.669143
     83 C27         0.7660   -5.8450   -0.0140 c3        1 MOL      0.516808
     84 C28         0.7050   -7.4070   -0.2480 c3        1 MOL     -0.482417
     85 O15         1.4300   -5.7090    1.2420 oh        1 MOL     -0.702189
     86 H35         3.0880   -4.2250   -0.3280 hn        1 MOL      0.321785
     87 H36         1.2590   -5.7110   -2.1700 h1        1 MOL      0.065462
     88 H37        -0.2420   -5.4310    0.0500 h1        1 MOL     -0.076934
     89 H38         1.9990   -4.9370    1.2740 ho        1 MOL      0.474739
     90 H39         0.4030   -7.9620    0.6430 hc        1 MOL      0.115877
     91 H40        -0.0160   -7.5700   -1.0460 hc        1 MOL      0.115877
     92 H41         1.7000   -7.7640   -0.5100 hc        1 MOL      0.115877
     93 N9         -0.5050   -3.8460   -2.2460 n         1 MOL     -0.704446
     94 C29        -1.4480   -2.8030   -2.3240 c3        1 MOL      0.031563
     95 C30        -2.7430   -3.1510   -1.6630 c         1 MOL      0.508432
     96 O16        -3.3560   -4.1990   -1.9200 o         1 MOL     -0.585307
     97 C31        -1.7100   -2.4220   -3.7740 c3        1 MOL      0.174110
     98 C32        -0.4520   -1.8610   -4.5340 c3        1 MOL      0.193202
     99 C33        -2.9180   -1.4740   -3.9270 c3        1 MOL     -0.386820
    100 C34        -0.5120   -1.9440   -6.1120 c3        1 MOL     -0.333249
    101 H42        -0.8130   -4.7530   -2.5770 hn        1 MOL      0.326698
    102 H43        -1.1070   -1.8630   -1.8830 h1        1 MOL      0.032661
    103 H44        -1.9820   -3.3410   -4.3000 hc        1 MOL      0.012594
    104 H45         0.4350   -2.4680   -4.3530 hc        1 MOL     -0.007315
    105 H46        -0.1750   -0.8610   -4.2350 hc        1 MOL     -0.007315
    106 H47        -3.0460   -0.6680   -3.2090 hc        1 MOL      0.066388
    107 H48        -2.9660   -1.1010   -4.9450 hc        1 MOL      0.066388
    108 H49        -3.8020   -2.1070   -3.8900 hc        1 MOL      0.066388
    109 H50        -0.7570   -2.9570   -6.4460 hc        1 MOL      0.072848
    110 H51        -1.4270   -1.4120   -6.3520 hc        1 MOL      0.072848
    111 H52         0.3380   -1.3890   -6.5240 hc        1 MOL      0.072848
    112 N10        -3.3150   -2.2290   -0.8910 n         1 MOL     -0.098160
    113 C35        -4.6260   -2.3680   -0.1680 c3        1 MOL     -0.002432
    114 C36        -5.8670   -1.5740   -0.6930 c         1 MOL      0.282125
    115 O17        -5.6580   -0.7360   -1.5420 o         1 MOL     -0.363204
    116 C37        -4.5140   -1.9850    1.3130 c3        1 MOL      0.157524
    117 C38        -3.3430   -2.6300    2.1010 c3        1 MOL     -0.249235
    118 O18        -4.4940   -0.5270    1.4500 oh        1 MOL     -0.521268
    119 H53        -2.8030   -1.3700   -0.7520 hn        1 MOL      0.262300
    120 H54        -4.9150   -3.4180   -0.1340 h1        1 MOL      0.064131
    121 H55        -5.4660   -2.2980    1.7400 h1        1 MOL      0.047083
    122 H56        -3.6980   -0.2660    1.9070 ho        1 MOL      0.385512
    123 H57        -2.9160   -3.3240    1.3830 hc        1 MOL      0.072731
    124 H58        -2.6280   -1.8560    2.3960 hc        1 MOL      0.072731
    125 H59        -3.7150   -3.1370    3.0010 hc        1 MOL      0.072731
    126 N11        -7.0740   -1.8400   -0.2760 n         1 MOL     -0.277148
    127 C39        -8.3400   -1.0070   -0.5040 c3        1 MOL     -0.090643
    128 C40        -8.0840    0.4190   -0.2010 c         1 MOL      0.341881
    129 O19        -8.4410    1.3210   -0.9670 o         1 MOL     -0.463041
    130 C41        -9.5340   -1.4590    0.3730 c3        1 MOL      0.330466
    131 C42       -10.4720   -2.5420   -0.1510 c3        1 MOL     -0.369366
    132 O20        -9.0320   -1.9060    1.6240 oh        1 MOL     -0.636549
    133 H60        -7.1170   -2.5180    0.4680 hn        1 MOL      0.266821
    134 H61        -8.6150   -1.0920   -1.5570 h1        1 MOL      0.148394
    135 H62       -10.2050   -0.6200    0.5670 h1        1 MOL      0.043452
    136 H63        -9.7320   -2.0060    2.2680 ho        1 MOL      0.409037
    137 H64        -9.8760   -3.4540   -0.1810 hc        1 MOL      0.104138
    138 H65       -11.3000   -2.7120    0.5490 hc        1 MOL      0.104138
    139 H66       -10.8730   -2.1850   -1.0970 hc        1 MOL      0.104138
    140 N12        -7.3880    0.7590    0.9090 n         1 MOL     -0.275885
    141 C43        -7.0040    2.0970    1.3490 c3        1 MOL     -0.139855
    142 C44        -6.0940    2.8310    0.3790 c         1 MOL      0.309617
    143 O21        -6.2900    3.9750    0.0050 o         1 MOL     -0.496795
    144 C45        -6.3150    2.0070    2.6890 c3        1 MOL      0.021617
    145 C46        -6.0150    3.2980    3.3120 c3        1 MOL     -0.145534
    146 C47        -5.4430    3.1340    4.7420 c3        1 MOL      0.087417
    147 C48        -5.2220    4.4930    5.3650 c3        1 MOL     -0.016110
    148 N13        -5.4450    4.5640    6.8540 n4        1 MOL     -0.288289
    149 H67        -7.0150   -0.0060    1.4570 hn        1 MOL      0.195763
    150 H68        -7.9830    2.5580    1.4450 h1        1 MOL      0.166389
    151 H69        -5.4570    1.3530    2.7300 hc        1 MOL      0.017496
    152 H70        -6.9950    1.5320    3.3950 hc        1 MOL      0.017496
    153 H71        -6.9450    3.8730    3.2030 hc        1 MOL      0.045471
    154 H72        -5.2420    3.7660    2.7010 hc        1 MOL      0.045471
    155 H73        -4.5450    2.5250    4.8500 hc        1 MOL      0.025991
    156 H74        -6.1840    2.5790    5.3070 hc        1 MOL      0.025991
    157 H75        -5.8170    5.3030    4.9390 hx        1 MOL      0.106981
    158 H76        -4.1830    4.7840    5.2110 hx        1 MOL      0.106981
    159 H77        -6.3340    4.2810    7.2490 hn        1 MOL      0.304141
    160 H78        -4.8240    3.8840    7.2820 hn        1 MOL      0.304141
    161 H79        -5.1620    5.4760    7.1680 hn        1 MOL      0.304141
    162 N14        -5.0840    2.1490   -0.1810 n         1 MOL      0.214728
    163 C49        -4.0230    2.7330   -1.0410 c3        1 MOL     -0.091911
    164 C50        -4.5690    3.0300   -2.4400 c         1 MOL      0.367579
    165 O22        -4.3830    4.2130   -2.8940 o         1 MOL     -0.551967
    166 C51        -2.8590    1.7690   -1.1600 c3        1 MOL      0.026512
    167 C52        -2.1050    1.6190    0.1190 c3        1 MOL     -0.039620
    168 C53        -0.9910    0.5460    0.0700 c         1 MOL      0.855845
    169 O23        -1.2830   -0.6510    0.3400 o         1 MOL     -0.787058
    170 O24         0.1980    0.8570   -0.1210 o         1 MOL     -0.787058
    171 H80        -4.9400    1.2220    0.2050 hn        1 MOL     -0.042756
    172 H81        -3.7030    3.6820   -0.6250 h1        1 MOL      0.078827
    173 H82        -2.0960    1.9810   -1.9180 hc        1 MOL      0.007212
    174 H83        -3.2700    0.8290   -1.5200 hc        1 MOL      0.007212
    175 H84        -2.8490    1.4000    0.8880 hc        1 MOL     -0.006935
    176 H85        -1.6370    2.5180    0.5160 hc        1 MOL     -0.006935
    177 N15        -5.3030    2.1510   -3.0590 n         1 MOL     -0.100635
    178 C54        -6.1340    2.3980   -4.2560 c3        1 MOL     -0.215486
    179 H86        -7.1300    1.9830   -4.0980 h1        1 MOL      0.096574
    180 H87        -6.2130    3.4710   -4.4300 h1        1 MOL      0.096574
    181 H88        -5.6760    1.9210   -5.1220 h1        1 MOL      0.096574
    182 H89        -5.3910    1.2400   -2.6410 hn        1 MOL      0.167284
    183 Ca1         1.3450   -1.0580    0.9860 Ca        1 MOL      1.758526
    184 O25        -0.1330   -3.1680    2.0600 oh        1 MOL     -0.836116
    185 H90        -0.9010   -2.9770    2.5920 ho        1 MOL      0.387737
    186 H91         0.1660   -4.0210    2.3730 ho        1 MOL      0.387737
    187 O26        -0.0680   -0.2240    3.5320 oh        1 MOL     -0.836116
    188 H92         0.2300   -0.6760    4.3250 ho        1 MOL      0.387737
    189 H93         0.4060    0.6130    3.5500 ho        1 MOL      0.387737
@<TRIPOS>BOND
     1    1    2 1   
     2    1    4 1   
     3    1    5 1   
     4    1    6 1   
     5    2    3 2   
     6    2    7 1   
     7    7    8 1   
     8    7   15 1   
     9    8    9 1   
    10    8   11 1   
    11    8   16 1   
    12    9   10 2   
    13    9   19 1   
    14   11   12 1   
    15   11   17 1   
    16   11   18 1   
    17   12   13 1   
    18   12   14 1   
    19   19   20 1   
    20   19   28 1   
    21   20   21 1   
    22   20   23 1   
    23   20   29 1   
    24   21   22 2   
    25   21   41 1   
    26   23   24 1   
    27   23   30 1   
    28   23   31 1   
    29   24   25 1   
    30   24   32 1   
    31   24   33 1   
    32   25   26 1   
    33   25   34 1   
    34   25   35 1   
    35   26   27 1   
    36   26   36 1   
    37   26   37 1   
    38   27   38 1   
    39   27   39 1   
    40   27   40 1   
    41   41   42 1   
    42   41   49 1   
    43   42   43 1   
    44   42   45 1   
    45   42   50 1   
    46   43   44 2   
    47   43   53 1   
    48   45   46 1   
    49   45   51 1   
    50   45   52 1   
    51   46   47 1   
    52   46   48 1   
    53   53   54 1   
    54   53   57 1   
    55   54   55 1   
    56   54   58 1   
    57   54   59 1   
    58   55   56 2   
    59   55   60 1   
    60   60   61 1   
    61   60   68 1   
    62   61   62 1   
    63   61   64 1   
    64   61   69 1   
    65   62   63 2   
    66   62   72 1   
    67   64   65 1   
    68   64   70 1   
    69   64   71 1   
    70   65   66 1   
    71   65   67 1   
    72   72   73 1   
    73   72   76 1   
    74   73   74 1   
    75   73   77 1   
    76   73   78 1   
    77   74   75 2   
    78   74   79 1   
    79   79   80 1   
    80   79   86 1   
    81   80   81 1   
    82   80   83 1   
    83   80   87 1   
    84   81   82 2   
    85   81   93 1   
    86   83   84 1   
    87   83   85 1   
    88   83   88 1   
    89   84   90 1   
    90   84   91 1   
    91   84   92 1   
    92   85   89 1   
    93   93   94 1   
    94   93  101 1   
    95   94   95 1   
    96   94   97 1   
    97   94  102 1   
    98   95   96 2   
    99   95  112 1   
   100   97   98 1   
   101   97   99 1   
   102   97  103 1   
   103   98  100 1   
   104   98  104 1   
   105   98  105 1   
   106   99  106 1   
   107   99  107 1   
   108   99  108 1   
   109  100  109 1   
   110  100  110 1   
   111  100  111 1   
   112  112  113 1   
   113  112  119 1   
   114  113  114 1   
   115  113  116 1   
   116  113  120 1   
   117  114  115 2   
   118  114  126 1   
   119  116  117 1   
   120  116  118 1   
   121  116  121 1   
   122  117  123 1   
   123  117  124 1   
   124  117  125 1   
   125  118  122 1   
   126  126  127 1   
   127  126  133 1   
   128  127  128 1   
   129  127  130 1   
   130  127  134 1   
   131  128  129 2   
   132  128  140 1   
   133  130  131 1   
   134  130  132 1   
   135  130  135 1   
   136  131  137 1   
   137  131  138 1   
   138  131  139 1   
   139  132  136 1   
   140  140  141 1   
   141  140  149 1   
   142  141  142 1   
   143  141  144 1   
   144  141  150 1   
   145  142  143 2   
   146  142  162 1   
   147  144  145 1   
   148  144  151 1   
   149  144  152 1   
   150  145  146 1   
   151  145  153 1   
   152  145  154 1   
   153  146  147 1   
   154  146  155 1   
   155  146  156 1   
   156  147  148 1   
   157  147  157 1   
   158  147  158 1   
   159  148  159 1   
   160  148  160 1   
   161  148  161 1   
   162  162  163 1   
   163  162  171 1   
   164  163  164 1   
   165  163  166 1   
   166  163  172 1   
   167  164  165 2   
   168  164  177 1   
   169  166  167 1   
   170  166  173 1   
   171  166  174 1   
   172  167  168 1   
   173  167  175 1   
   174  167  176 1   
   175  168  169 1   
   176  168  170 1   
   177  177  178 1   
   178  177  182 1   
   179  178  179 1   
   180  178  180 1   
   181  178  181 1   
   182  184  185 1   
   183  184  186 1   
   184  187  188 1   
   185  187  189 1   
@<TRIPOS>SUBSTRUCTURE
     1 MOL         1 TEMP              0 ****  ****    0 ROOT
