@<TRIPOS>MOLECULE
MOL
  175   173     1     0     0
SMALL
resp


@<TRIPOS>ATOM
      1 C1          0.5200    4.4830    5.2670 c3        1 MOL     -0.315490
      2 C2         -0.0620    4.2790    3.8410 c         1 MOL      0.727190
      3 O1          0.6350    4.4080    2.8150 o         1 MOL     -0.563289
      4 H1          1.6050    4.5610    5.2080 hc        1 MOL      0.074302
      5 H2          0.1120    5.3970    5.6990 hc        1 MOL      0.074302
      6 H3          0.2510    3.6320    5.8940 hc        1 MOL      0.074302
      7 N1         -1.3850    4.0950    3.7440 n         1 MOL     -0.616453
      8 C3         -2.0770    3.6450    2.5190 c3        1 MOL      0.051049
      9 C4         -2.2860    4.8030    1.5570 c         1 MOL      0.634364
     10 O2         -2.6400    5.9540    1.8780 o         1 MOL     -0.598518
     11 C5         -3.4550    3.2020    2.9120 c3        1 MOL     -0.288035
     12 C6         -4.0750    2.3170    1.7950 c         1 MOL      0.783355
     13 O3         -5.1570    1.7850    2.1600 o         1 MOL     -0.675572
     14 O4         -3.6190    2.1370    0.6110 o         1 MOL     -0.675572
     15 H4         -1.9090    4.2310    4.5980 hn        1 MOL      0.325479
     16 H5         -1.4580    2.9040    2.0100 h1        1 MOL      0.129737
     17 H6         -4.1090    4.0010    3.2390 hc        1 MOL      0.078328
     18 H7         -3.3530    2.5610    3.7980 hc        1 MOL      0.078328
     19 N2         -2.0340    4.5180    0.2770 n         1 MOL     -0.624772
     20 C7         -2.1440    5.4880   -0.8410 c3        1 MOL      0.399434
     21 C8         -3.0350    4.9990   -1.9910 c         1 MOL      0.505556
     22 O5         -3.0240    5.6540   -3.0480 o         1 MOL     -0.562587
     23 C9         -0.7920    6.0630   -1.2380 c3        1 MOL     -0.232046
     24 H8         -1.6840    3.5900    0.1160 hn        1 MOL      0.352333
     25 H9         -2.7670    6.3000   -0.4780 h1        1 MOL     -0.005811
     26 H10        -1.0350    6.8200   -1.9720 hc        1 MOL      0.047270
     27 H11        -0.3420    6.6460   -0.4320 hc        1 MOL      0.047270
     28 H12        -0.1750    5.2360   -1.6120 hc        1 MOL      0.047270
     29 N3         -3.8270    3.9020   -1.7630 n         1 MOL     -0.490113
     30 C10        -4.8510    3.3870   -2.7150 c3        1 MOL      0.072719
     31 C11        -6.0150    2.6160   -2.1190 c         1 MOL      0.333569
     32 O6         -7.0710    2.5440   -2.7660 o         1 MOL     -0.556711
     33 C12        -4.1790    2.6030   -3.7830 c3        1 MOL     -0.099892
     34 C13        -3.2400    1.5160   -3.1110 c         1 MOL      0.633432
     35 O7         -3.7130    0.7470   -2.2280 o         1 MOL     -0.643610
     36 O8         -2.1930    1.2990   -3.7200 o         1 MOL     -0.643610
     37 H13        -3.6110    3.2850   -0.9910 hn        1 MOL      0.241006
     38 H14        -5.2140    4.2710   -3.2520 h1        1 MOL      0.068046
     39 H15        -3.5600    3.1790   -4.4660 hc        1 MOL      0.035037
     40 H16        -4.9820    2.1180   -4.3470 hc        1 MOL      0.035037
     41 N4         -5.9050    1.9300   -0.9810 n         1 MOL     -0.007711
     42 C14        -6.9530    1.0850   -0.3850 c3        1 MOL     -0.222226
     43 C15        -7.1520   -0.3750   -0.9010 c         1 MOL      0.485149
     44 O9         -8.2600   -0.9780   -0.7610 o         1 MOL     -0.598880
     45 H17        -5.0310    1.9690   -0.4890 hn        1 MOL      0.057364
     46 H18        -7.8560    1.7090   -0.3040 h1        1 MOL      0.106836
     47 H19        -6.5090    0.8230    0.5780 h1        1 MOL      0.106836
     48 N5         -6.1190   -0.9770   -1.5650 n         1 MOL     -0.169189
     49 C16        -6.1640   -2.3180   -2.1860 c3        1 MOL     -0.059689
     50 C17        -6.1730   -3.4790   -1.2590 c         1 MOL      0.493439
     51 O10        -6.2260   -4.6110   -1.7170 o         1 MOL     -0.545596
     52 C18        -5.0190   -2.3320   -3.1250 c3        1 MOL     -0.097048
     53 C19        -3.6530   -2.4020   -2.4580 c         1 MOL      0.651613
     54 N6         -2.6410   -2.6760   -3.1830 n         1 MOL     -0.678947
     55 O11        -3.5130   -2.1930   -1.2910 o         1 MOL     -0.728000
     56 H20        -5.3050   -0.4420   -1.8390 hn        1 MOL      0.179132
     57 H21        -7.0800   -2.4150   -2.7710 h1        1 MOL      0.098057
     58 H22        -5.1240   -1.4890   -3.8050 hc        1 MOL      0.046022
     59 H23        -5.1050   -3.2200   -3.7550 hc        1 MOL      0.046022
     60 H24        -2.7600   -2.5160   -4.1690 hn        1 MOL      0.338762
     61 H25        -1.7830   -2.3520   -2.7680 hn        1 MOL      0.338762
     62 N7         -6.1400   -3.3060    0.0870 n         1 MOL     -0.255536
     63 C20        -6.1390   -4.3180    1.1960 c3        1 MOL     -0.276896
     64 C21        -4.7750   -4.7340    1.7500 c         1 MOL      0.578256
     65 O12        -4.7190   -5.4340    2.7770 o         1 MOL     -0.576639
     66 H26        -6.1750   -2.3570    0.3980 hn        1 MOL      0.230342
     67 H27        -6.5590   -5.2580    0.8610 h1        1 MOL      0.131639
     68 H28        -6.7660   -3.9750    2.0220 h1        1 MOL      0.131639
     69 N8         -3.7120   -4.1930    1.1320 n         1 MOL     -0.344561
     70 C22        -2.3720   -4.5320    1.4700 c3        1 MOL     -0.173524
     71 C23        -1.4970   -3.3200    1.5370 c         1 MOL      0.592435
     72 O13        -1.6060   -2.2460    0.9370 o         1 MOL     -0.593436
     73 C24        -1.7360   -5.3610    0.3930 c3        1 MOL      0.444166
     74 C25        -2.1030   -6.8470    0.4320 c3        1 MOL     -0.546378
     75 O14        -1.9470   -4.9260   -0.9170 oh        1 MOL     -0.556711
     76 H29        -3.8990   -3.6040    0.3280 hn        1 MOL      0.329454
     77 H30        -2.3910   -5.1050    2.4010 h1        1 MOL      0.130071
     78 H31        -0.6480   -5.2790    0.4570 h1        1 MOL      0.008857
     79 H32        -2.0780   -3.9730   -0.8770 ho        1 MOL      0.361195
     80 H33        -2.2090   -7.2250    1.4500 hc        1 MOL      0.140480
     81 H34        -3.0870   -6.8880   -0.0300 hc        1 MOL      0.140480
     82 H35        -1.4090   -7.4120   -0.1820 hc        1 MOL      0.140480
     83 N9         -0.4530   -3.4190    2.4060 n         1 MOL     -0.602851
     84 C26         0.5970   -2.3900    2.4470 c3        1 MOL      0.036558
     85 C27         1.4970   -2.6800    1.2740 c         1 MOL      0.468322
     86 O15         2.0810   -3.7960    1.2580 o         1 MOL     -0.595799
     87 C28         1.3920   -2.3490    3.7270 c3        1 MOL      0.320540
     88 C29         0.4520   -2.2300    4.9600 c3        1 MOL      0.064941
     89 C30         2.4770   -1.3120    3.7750 c3        1 MOL     -0.247412
     90 C31         1.0020   -2.3760    6.4160 c3        1 MOL     -0.178132
     91 H36        -0.3190   -4.2790    2.9140 hn        1 MOL      0.298236
     92 H37         0.0250   -1.4660    2.3620 h1        1 MOL      0.024345
     93 H38         1.9200   -3.2900    3.8960 hc        1 MOL     -0.054485
     94 H39        -0.3630   -2.9470    4.9670 hc        1 MOL     -0.022730
     95 H40         0.0580   -1.2060    4.9420 hc        1 MOL     -0.022730
     96 H41         3.1550   -1.7000    3.0170 hc        1 MOL      0.035245
     97 H42         2.2360   -0.3040    3.4440 hc        1 MOL      0.035245
     98 H43         2.9940   -1.3560    4.7370 hc        1 MOL      0.035245
     99 H44         1.1280   -3.4330    6.6470 hc        1 MOL      0.036861
    100 H45         1.8960   -1.7800    6.5840 hc        1 MOL      0.036861
    101 H46         0.3340   -2.0500    7.2170 hc        1 MOL      0.036861
    102 N10         1.6150   -1.8180    0.2480 n         1 MOL     -0.014893
    103 C32         2.4400   -1.9860   -0.8890 c3        1 MOL      0.029991
    104 C33         3.8980   -1.5640   -0.5160 c         1 MOL      0.292720
    105 O16         4.1730   -0.8170    0.4130 o         1 MOL     -0.258558
    106 C34         1.9670   -1.1050   -2.0730 c3        1 MOL     -0.071621
    107 C35         0.4980   -1.4860   -2.3910 c         1 MOL      0.555944
    108 O17         0.3480   -2.0340   -3.4810 o         1 MOL     -0.604391
    109 O18        -0.4800   -1.2220   -1.6350 o         1 MOL     -0.604391
    110 H47         0.9810   -1.0220    0.2660 hn        1 MOL      0.046540
    111 H48         2.4570   -3.0400   -1.1900 h1        1 MOL      0.059212
    112 H49         2.4730   -1.4660   -2.9660 hc        1 MOL      0.041867
    113 H50         2.1360   -0.0490   -1.8610 hc        1 MOL      0.041867
    114 N11         4.9620   -1.9790   -1.2550 n         1 MOL     -0.497966
    115 C36         6.3890   -1.7610   -1.0310 c3        1 MOL      0.212341
    116 C37         6.7320   -0.2550   -0.9950 c         1 MOL      0.442623
    117 O19         7.3450    0.1760   -0.0200 o         1 MOL     -0.528888
    118 C38         7.3200   -2.5020   -2.0700 c3        1 MOL     -0.201820
    119 C39         8.7770   -2.3320   -1.7810 ca        1 MOL      0.056095
    120 C40         9.4940   -1.4060   -2.4800 ca        1 MOL     -0.141085
    121 C41         9.4970   -3.1700   -0.8280 ca        1 MOL     -0.141085
    122 C42        10.8890   -1.2250   -2.2590 ca        1 MOL     -0.128763
    123 C43        10.9020   -3.0180   -0.6270 ca        1 MOL     -0.128763
    124 C44        11.5760   -1.9900   -1.3160 ca        1 MOL     -0.083350
    125 H51         4.7280   -2.5430   -2.0640 hn        1 MOL      0.281591
    126 H52         6.5410   -1.9610    0.0270 h1        1 MOL      0.057603
    127 H53         7.0810   -2.0720   -3.0390 hc        1 MOL      0.079976
    128 H54         6.9800   -3.5400   -2.1400 hc        1 MOL      0.079976
    129 H55         8.8950   -0.8670   -3.2000 ha        1 MOL      0.115839
    130 H56         9.0160   -3.9400   -0.2420 ha        1 MOL      0.115839
    131 H57        11.3920   -0.5240   -2.9060 ha        1 MOL      0.114615
    132 H58        11.3590   -3.6570    0.1130 ha        1 MOL      0.114615
    133 H59        12.6250   -1.7550   -1.2420 ha        1 MOL      0.096046
    134 N12         6.2050    0.6700   -1.8900 n         1 MOL     -0.132946
    135 C45         6.5730    2.1530   -1.7830 c3        1 MOL     -0.056301
    136 C46         5.7330    2.8930   -0.7040 c         1 MOL      0.453143
    137 O20         5.8870    4.1020   -0.4070 o         1 MOL     -0.531487
    138 C47         6.5970    2.6260   -3.2040 c3        1 MOL     -0.132561
    139 C48         5.4760    1.8000   -3.7670 c3        1 MOL     -0.035930
    140 C49         5.4320    0.4280   -3.0670 c3        1 MOL      0.046973
    141 H60         7.5850    2.2020   -1.3640 h1        1 MOL      0.092450
    142 H61         6.3640    3.6810   -3.1940 hc        1 MOL      0.066523
    143 H62         7.5740    2.3980   -3.6510 hc        1 MOL      0.066523
    144 H63         4.5090    2.2550   -3.5270 hc        1 MOL      0.036299
    145 H64         5.5210    1.5900   -4.8400 hc        1 MOL      0.036299
    146 H65         4.3850    0.1980   -2.9530 h1        1 MOL      0.001080
    147 H66         5.9180   -0.3960   -3.6040 h1        1 MOL      0.001080
    148 N13         4.7760    2.2060   -0.0880 n         1 MOL     -0.128347
    149 C50         3.9620    2.6360    1.1140 c3        1 MOL     -0.289545
    150 C51         4.7710    2.2920    2.3760 c         1 MOL      0.512636
    151 O21         4.9670    3.0840    3.3230 o         1 MOL     -0.552013
    152 C52         2.5730    2.0190    1.2330 c3        1 MOL      0.176778
    153 C53         1.6100    2.2970    0.0400 c3        1 MOL     -0.032397
    154 C54         0.2280    1.6630    0.2330 c         1 MOL      0.396287
    155 O22        -0.7010    2.0580   -0.5160 o         1 MOL     -0.623165
    156 O23        -0.0620    0.6840    0.9970 o         1 MOL     -0.623165
    157 H67         4.5860    1.2400   -0.3220 hn        1 MOL      0.105887
    158 H68         3.8140    3.7060    1.1630 h1        1 MOL      0.154500
    159 H69         2.0940    2.4450    2.1120 hc        1 MOL     -0.021715
    160 H70         2.6250    0.9420    1.3720 hc        1 MOL     -0.021715
    161 H71         2.0670    1.9770   -0.8990 hc        1 MOL      0.069204
    162 H72         1.4630    3.3640   -0.0850 hc        1 MOL      0.069204
    163 N14         5.3000    1.0410    2.5200 n         1 MOL     -0.112898
    164 C55         6.1790    0.5880    3.5710 c3        1 MOL     -0.210927
    165 H73         7.2140    0.7640    3.2790 h1        1 MOL      0.081879
    166 H74         5.9630    1.1360    4.4880 h1        1 MOL      0.081879
    167 H75         6.0250   -0.4780    3.7400 h1        1 MOL      0.081879
    168 H76         5.1470    0.4040    1.7480 hn        1 MOL      0.112475
    169 Ca1        -2.2820   -0.0340   -0.2330 Ca        1 MOL      1.622654
    170 O24        -4.6510   -0.7210    1.0790 oh        1 MOL     -0.720188
    171 H77        -4.8340   -1.4470    1.6710 ho        1 MOL      0.352964
    172 H78        -4.8580    0.0630    1.5860 ho        1 MOL      0.352964
    173 O25        -2.0560    0.1470    2.5060 oh        1 MOL     -0.720188
    174 H79        -1.1590    0.3240    2.2110 ho        1 MOL      0.352964
    175 H80        -1.9910    0.1080    3.4660 ho        1 MOL      0.352964
@<TRIPOS>BOND
     1    1    2 1   
     2    1    4 1   
     3    1    5 1   
     4    1    6 1   
     5    2    3 2   
     6    2    7 1   
     7    7    8 1   
     8    7   15 1   
     9    8    9 1   
    10    8   11 1   
    11    8   16 1   
    12    9   10 2   
    13    9   19 1   
    14   11   12 1   
    15   11   17 1   
    16   11   18 1   
    17   12   13 1   
    18   12   14 1   
    19   19   20 1   
    20   19   24 1   
    21   20   21 1   
    22   20   23 1   
    23   20   25 1   
    24   21   22 2   
    25   21   29 1   
    26   23   26 1   
    27   23   27 1   
    28   23   28 1   
    29   29   30 1   
    30   29   37 1   
    31   30   31 1   
    32   30   33 1   
    33   30   38 1   
    34   31   32 2   
    35   31   41 1   
    36   33   34 1   
    37   33   39 1   
    38   33   40 1   
    39   34   35 1   
    40   34   36 1   
    41   41   42 1   
    42   41   45 1   
    43   42   43 1   
    44   42   46 1   
    45   42   47 1   
    46   43   44 2   
    47   43   48 1   
    48   48   49 1   
    49   48   56 1   
    50   49   50 1   
    51   49   52 1   
    52   49   57 1   
    53   50   51 2   
    54   50   62 1   
    55   52   53 1   
    56   52   58 1   
    57   52   59 1   
    58   53   54 1   
    59   53   55 2   
    60   54   60 1   
    61   54   61 1   
    62   62   63 1   
    63   62   66 1   
    64   63   64 1   
    65   63   67 1   
    66   63   68 1   
    67   64   65 2   
    68   64   69 1   
    69   69   70 1   
    70   69   76 1   
    71   70   71 1   
    72   70   73 1   
    73   70   77 1   
    74   71   72 2   
    75   71   83 1   
    76   73   74 1   
    77   73   75 1   
    78   73   78 1   
    79   74   80 1   
    80   74   81 1   
    81   74   82 1   
    82   75   79 1   
    83   83   84 1   
    84   83   91 1   
    85   84   85 1   
    86   84   87 1   
    87   84   92 1   
    88   85   86 2   
    89   85  102 1   
    90   87   88 1   
    91   87   89 1   
    92   87   93 1   
    93   88   90 1   
    94   88   94 1   
    95   88   95 1   
    96   89   96 1   
    97   89   97 1   
    98   89   98 1   
    99   90   99 1   
   100   90  100 1   
   101   90  101 1   
   102  102  103 1   
   103  102  110 1   
   104  103  104 1   
   105  103  106 1   
   106  103  111 1   
   107  104  105 2   
   108  104  114 1   
   109  106  107 1   
   110  106  112 1   
   111  106  113 1   
   112  107  108 1   
   113  107  109 1   
   114  114  115 1   
   115  114  125 1   
   116  115  116 1   
   117  115  118 1   
   118  115  126 1   
   119  116  117 2   
   120  116  134 1   
   121  118  119 1   
   122  118  127 1   
   123  118  128 1   
   124  119  120 ar  
   125  119  121 ar  
   126  120  122 ar  
   127  120  129 1   
   128  121  123 ar  
   129  121  130 1   
   130  122  124 ar  
   131  122  131 1   
   132  123  124 ar  
   133  123  132 1   
   134  124  133 1   
   135  134  135 1   
   136  134  140 1   
   137  135  136 1   
   138  135  138 1   
   139  135  141 1   
   140  136  137 2   
   141  136  148 1   
   142  138  139 1   
   143  138  142 1   
   144  138  143 1   
   145  139  140 1   
   146  139  144 1   
   147  139  145 1   
   148  140  146 1   
   149  140  147 1   
   150  148  149 1   
   151  148  157 1   
   152  149  150 1   
   153  149  152 1   
   154  149  158 1   
   155  150  151 2   
   156  150  163 1   
   157  152  153 1   
   158  152  159 1   
   159  152  160 1   
   160  153  154 1   
   161  153  161 1   
   162  153  162 1   
   163  154  155 1   
   164  154  156 1   
   165  163  164 1   
   166  163  168 1   
   167  164  165 1   
   168  164  166 1   
   169  164  167 1   
   170  170  171 1   
   171  170  172 1   
   172  173  174 1   
   173  173  175 1   
@<TRIPOS>SUBSTRUCTURE
     1 MOL         1 TEMP              0 ****  ****    0 ROOT
