@<TRIPOS>MOLECULE
MOL
  189   185     1     0     0
SMALL
resp


@<TRIPOS>ATOM
      1 C1          0.2780    1.8700    5.4870 c3        1 MOL     -0.577570
      2 C2         -0.4750    1.7360    4.1140 c         1 MOL      0.586244
      3 O1          0.2320    1.9250    3.0890 o         1 MOL     -0.517059
      4 H1          1.2360    1.3530    5.4270 hc        1 MOL      0.159126
      5 H2          0.4490    2.9240    5.7070 hc        1 MOL      0.159126
      6 H3         -0.3250    1.4270    6.2790 hc        1 MOL      0.159126
      7 N1         -1.8120    1.5810    3.9470 n         1 MOL     -0.555473
      8 C3         -2.4030    1.4580    2.5860 c3        1 MOL      0.240403
      9 C4         -2.8170    2.7660    1.9180 c         1 MOL      0.367636
     10 O2         -3.8990    3.2950    2.1090 o         1 MOL     -0.472153
     11 C5         -3.5460    0.5050    2.6870 c3        1 MOL     -0.344116
     12 C6         -4.2290    0.2090    1.3360 c         1 MOL      0.848249
     13 O3         -3.6140    0.5950    0.2820 o         1 MOL     -0.652856
     14 O4         -5.2820   -0.4560    1.4390 o         1 MOL     -0.652856
     15 H4         -2.3970    1.4460    4.7530 hn        1 MOL      0.331103
     16 H5         -1.6170    0.9600    2.0150 h1        1 MOL     -0.036948
     17 H6         -4.2930    0.9520    3.3490 hc        1 MOL      0.072296
     18 H7         -3.1350   -0.4430    3.0220 hc        1 MOL      0.072296
     19 N2         -1.8580    3.4070    1.2040 n         1 MOL     -0.178111
     20 C7         -1.9060    4.7960    0.7360 c3        1 MOL     -0.075008
     21 C8         -2.7410    5.0520   -0.4680 c         1 MOL      0.354405
     22 O5         -2.8260    6.2590   -0.8760 o         1 MOL     -0.584495
     23 C9         -0.4510    5.1870    0.4040 c3        1 MOL     -0.065858
     24 C10         0.4390    5.2340    1.5920 c3        1 MOL      0.032630
     25 C11         0.0760    6.2350    2.7560 c3        1 MOL     -0.214382
     26 C12         1.3340    6.7580    3.5320 c3        1 MOL     -0.020356
     27 N3          1.8230    5.7740    4.5170 n4        1 MOL     -0.411533
     28 H8         -1.0030    2.9110    1.0100 hn        1 MOL      0.324936
     29 H9         -2.2310    5.3840    1.5960 h1        1 MOL      0.067261
     30 H10        -0.3820    6.1590   -0.0870 hc        1 MOL      0.077638
     31 H11        -0.0340    4.4370   -0.2670 hc        1 MOL      0.077638
     32 H12         1.2840    5.7170    1.0890 hc        1 MOL     -0.006627
     33 H13         0.6210    4.2460    2.0020 hc        1 MOL     -0.006627
     34 H14        -0.6350    5.7480    3.4210 hc        1 MOL      0.102573
     35 H15        -0.3000    7.1460    2.2730 hc        1 MOL      0.102573
     36 H16         1.1650    7.7510    3.9580 hx        1 MOL      0.116174
     37 H17         2.1220    6.8970    2.7880 hx        1 MOL      0.116174
     38 H18         2.6330    6.0460    5.0580 hn        1 MOL      0.342669
     39 H19         1.0510    5.4730    5.0940 hn        1 MOL      0.342669
     40 H20         2.1610    4.9280    4.0750 hn        1 MOL      0.342669
     41 N4         -3.2290    4.0420   -1.1160 n         1 MOL      0.025816
     42 C13        -4.1720    4.0080   -2.2250 c3        1 MOL      0.120008
     43 C14        -5.4210    3.1600   -1.9690 c         1 MOL      0.398186
     44 O6         -6.3270    3.1990   -2.8010 o         1 MOL     -0.512477
     45 C15        -3.4860    3.5560   -3.5940 c3        1 MOL     -0.411597
     46 C16        -2.5890    2.2700   -3.6410 c         1 MOL      0.823489
     47 O7         -1.5540    2.2500   -4.3330 o         1 MOL     -0.694915
     48 O8         -2.7140    1.4530   -2.6960 o         1 MOL     -0.694915
     49 H21        -2.9800    3.1160   -0.7870 hn        1 MOL      0.039896
     50 H22        -4.5310    5.0340   -2.3080 h1        1 MOL      0.054749
     51 H23        -2.7660    4.3170   -3.8680 hc        1 MOL      0.094019
     52 H24        -4.3190    3.4600   -4.2940 hc        1 MOL      0.094019
     53 N5         -5.4910    2.6570   -0.7470 n         1 MOL     -0.053701
     54 C17        -6.6900    2.2710   -0.0960 c3        1 MOL     -0.194255
     55 C18        -7.3310    0.9820   -0.7430 c         1 MOL      0.513466
     56 O9         -8.5560    0.8160   -0.7130 o         1 MOL     -0.560847
     57 H25        -4.6440    2.6620   -0.1920 hn        1 MOL     -0.034526
     58 H26        -7.3170    3.1220   -0.3420 h1        1 MOL      0.105496
     59 H27        -6.5450    2.1680    0.9840 h1        1 MOL      0.105496
     60 N6         -6.4470    0.0320   -1.2110 n         1 MOL     -0.207742
     61 C19        -6.8720   -1.1000   -1.9540 c3        1 MOL      0.002441
     62 C20        -7.1340   -2.3400   -1.0520 c         1 MOL      0.366769
     63 O10        -7.5720   -3.4360   -1.5140 o         1 MOL     -0.544526
     64 C21        -5.9010   -1.3170   -3.1090 c3        1 MOL     -0.290267
     65 C22        -4.4260   -1.3610   -2.6780 c         1 MOL      0.713525
     66 O11        -4.1760   -1.6620   -1.5020 o         1 MOL     -0.714315
     67 O12        -3.4450   -1.1290   -3.4670 o         1 MOL     -0.714315
     68 H28        -5.5150    0.0290   -0.8240 hn        1 MOL      0.140463
     69 H29        -7.8050   -0.9660   -2.5120 h1        1 MOL      0.122567
     70 H30        -6.0730   -0.4210   -3.7190 hc        1 MOL      0.095651
     71 H31        -6.1510   -2.1980   -3.7060 hc        1 MOL      0.095651
     72 N7         -6.9010   -2.1710    0.2480 n         1 MOL     -0.227963
     73 C23        -6.9780   -3.2580    1.2660 c3        1 MOL     -0.176161
     74 C24        -5.6850   -4.0790    1.3080 c         1 MOL      0.431245
     75 O13        -5.6280   -5.0360    2.1390 o         1 MOL     -0.578632
     76 H32        -6.5830   -1.2750    0.5770 hn        1 MOL      0.250685
     77 H33        -7.8970   -3.8300    1.1670 h1        1 MOL      0.124441
     78 H34        -7.1020   -2.7700    2.2360 h1        1 MOL      0.124441
     79 N8         -4.6550   -3.6250    0.6290 n         1 MOL     -0.071516
     80 C25        -3.2850   -4.1440    0.6350 c3        1 MOL     -0.081965
     81 C26        -2.1770   -3.1880    0.8620 c         1 MOL      0.666000
     82 O14        -2.3480   -1.9760    0.6480 o         1 MOL     -0.609521
     83 C27        -3.1390   -4.9740   -0.6180 c3        1 MOL      0.509183
     84 C28        -3.9550   -6.2750   -0.6390 c3        1 MOL     -0.426876
     85 O15        -3.3890   -4.2970   -1.8570 oh        1 MOL     -0.645172
     86 H35        -4.8450   -2.7810    0.1080 hn        1 MOL      0.083438
     87 H36        -3.1780   -4.8980    1.4180 h1        1 MOL      0.041746
     88 H37        -2.1180   -5.3570   -0.5800 h1        1 MOL     -0.056117
     89 H38        -3.9920   -3.5850   -1.6300 ho        1 MOL      0.433751
     90 H39        -3.6240   -6.9030   -1.4690 hc        1 MOL      0.104721
     91 H40        -3.9300   -6.7490    0.3420 hc        1 MOL      0.104721
     92 H41        -4.9490   -5.9740   -0.9570 hc        1 MOL      0.104721
     93 N9         -1.0630   -3.6380    1.3650 n         1 MOL     -0.614603
     94 C29         0.2270   -2.9070    1.5290 c3        1 MOL      0.059711
     95 C30         1.3100   -3.5200    0.6500 c         1 MOL      0.426036
     96 O16         1.3510   -4.7230    0.4250 o         1 MOL     -0.545516
     97 C31         0.6650   -2.9130    3.0300 c3        1 MOL      0.174048
     98 C32        -0.4250   -2.2680    3.8940 c3        1 MOL     -0.022879
     99 C33         1.9560   -2.2540    3.3260 c3        1 MOL     -0.286075
    100 C34        -0.5150   -2.6900    5.4070 c3        1 MOL     -0.302792
    101 H42        -0.9720   -4.6220    1.5820 hn        1 MOL      0.319433
    102 H43         0.0190   -1.8790    1.2210 h1        1 MOL      0.112590
    103 H44         0.5950   -3.9420    3.3800 hc        1 MOL      0.010412
    104 H45        -1.3860   -2.3340    3.3720 hc        1 MOL      0.076307
    105 H46        -0.2230   -1.1960    3.9260 hc        1 MOL      0.076307
    106 H47         2.7350   -2.7500    2.7430 hc        1 MOL      0.051370
    107 H48         2.0730   -1.2100    3.0250 hc        1 MOL      0.051370
    108 H49         2.2020   -2.3690    4.3830 hc        1 MOL      0.051370
    109 H50         0.4540   -2.5530    5.8970 hc        1 MOL      0.076751
    110 H51        -1.3800   -2.1790    5.8360 hc        1 MOL      0.076751
    111 H52        -0.6690   -3.7680    5.4130 hc        1 MOL      0.076751
    112 N10         2.2530   -2.7040    0.1300 n         1 MOL     -0.015143
    113 C35         3.4040   -3.0650   -0.7410 c3        1 MOL      0.007171
    114 C36         4.7210   -2.8100    0.0300 c         1 MOL      0.368351
    115 O17         4.7080   -2.1160    1.0090 o         1 MOL     -0.359441
    116 C37         3.4650   -2.1680   -2.0020 c3        1 MOL      0.003157
    117 C38         2.2230   -2.4470   -2.8570 c3        1 MOL     -0.067180
    118 O18         3.4280   -0.7580   -1.7510 oh        1 MOL     -0.349072
    119 H53         2.1160   -1.7200    0.3190 hn        1 MOL     -0.045207
    120 H54         3.2970   -4.1170   -0.9990 h1        1 MOL      0.089798
    121 H55         4.3060   -2.5670   -2.5610 h1        1 MOL      0.044908
    122 H56         3.3290   -0.3920   -2.6300 ho        1 MOL      0.335769
    123 H57         2.0480   -3.5230   -2.8640 hc        1 MOL      0.027407
    124 H58         1.3660   -1.7970   -2.6350 hc        1 MOL      0.027407
    125 H59         2.5690   -2.2420   -3.8730 hc        1 MOL      0.027407
    126 N11         5.8650   -3.3030   -0.4720 n         1 MOL     -0.304288
    127 C39         7.2350   -3.0420    0.0450 c3        1 MOL     -0.191676
    128 C40         7.5730   -1.5350   -0.0400 c         1 MOL      0.315368
    129 O19         8.1230   -0.9870    0.8900 o         1 MOL     -0.448291
    130 C41         8.3600   -3.7990   -0.6220 c3        1 MOL      0.329888
    131 C42         8.5790   -5.1850   -0.0260 c3        1 MOL     -0.247753
    132 O20         8.1590   -4.0730   -1.9820 oh        1 MOL     -0.646661
    133 H60         5.7570   -3.8630   -1.2990 hn        1 MOL      0.225983
    134 H61         7.2200   -3.3190    1.0980 h1        1 MOL      0.178187
    135 H62         9.3150   -3.2750   -0.5440 h1        1 MOL      0.114533
    136 H63         7.5120   -4.7750   -2.1180 ho        1 MOL      0.414731
    137 H64         8.6880   -5.0050    1.0420 hc        1 MOL      0.065487
    138 H65         7.7290   -5.8440   -0.1920 hc        1 MOL      0.065487
    139 H66         9.5090   -5.6760   -0.3070 hc        1 MOL      0.065487
    140 N12         7.2290   -0.8010   -1.0900 n         1 MOL     -0.199880
    141 C43         7.2170    0.6490   -1.0880 c3        1 MOL     -0.036308
    142 C44         6.4330    1.2490    0.0750 c         1 MOL      0.298193
    143 O21         7.0530    2.0150    0.8200 o         1 MOL     -0.504315
    144 C45         6.8750    1.3350   -2.4790 c3        1 MOL     -0.118060
    145 C46         7.0660    2.8480   -2.4530 c3        1 MOL     -0.059576
    146 C47         6.9850    3.5170   -3.8240 c3        1 MOL     -0.090479
    147 C48         7.9320    2.8520   -4.8180 c3        1 MOL      0.065627
    148 N13         7.9760    3.5770   -6.1320 n4        1 MOL     -0.379488
    149 H67         6.8150   -1.2200   -1.9080 hn        1 MOL      0.199229
    150 H68         8.2470    0.9660   -0.8990 h1        1 MOL      0.112997
    151 H69         5.8000    1.1620   -2.6260 hc        1 MOL      0.040637
    152 H70         7.5120    0.8410   -3.2130 hc        1 MOL      0.040637
    153 H71         8.0280    3.0600   -1.9870 hc        1 MOL      0.079246
    154 H72         6.3560    3.4130   -1.8540 hc        1 MOL      0.079246
    155 H73         7.1160    4.5960   -3.7770 hc        1 MOL      0.060981
    156 H74         5.9690    3.4260   -4.2150 hc        1 MOL      0.060981
    157 H75         7.6080    1.8280   -4.9880 hx        1 MOL      0.079560
    158 H76         8.9020    2.8610   -4.3360 hx        1 MOL      0.079560
    159 H77         8.8330    3.3580   -6.6190 hn        1 MOL      0.309661
    160 H78         7.2630    3.2630   -6.7810 hn        1 MOL      0.309661
    161 H79         7.8450    4.5510   -5.9160 hn        1 MOL      0.309661
    162 N14         5.1700    0.9430    0.2240 n         1 MOL     -0.047269
    163 C49         4.2690    1.3400    1.3320 c3        1 MOL     -0.205652
    164 C50         4.7370    0.9290    2.7130 c         1 MOL      0.464057
    165 O22         4.4820    1.6750    3.7340 o         1 MOL     -0.585781
    166 C51         2.8080    0.8380    1.0000 c3        1 MOL      0.217463
    167 C52         2.1280    1.6460   -0.1330 c3        1 MOL     -0.188586
    168 C53         0.7140    1.0260   -0.3650 c         1 MOL      0.557072
    169 O23         0.4840   -0.1910   -0.3750 o         1 MOL     -0.642852
    170 O24        -0.1850    1.8830   -0.5380 o         1 MOL     -0.642852
    171 H80         4.8140    0.2520   -0.4220 hn        1 MOL      0.063711
    172 H81         4.1440    2.4210    1.2240 h1        1 MOL      0.089023
    173 H82         2.2160    0.9830    1.9080 hc        1 MOL      0.014868
    174 H83         2.8040   -0.2460    0.8280 hc        1 MOL      0.014868
    175 H84         2.7340    1.5820   -1.0340 hc        1 MOL      0.019986
    176 H85         1.9900    2.7070    0.0870 hc        1 MOL      0.019986
    177 N15         5.5780   -0.0970    2.7740 n         1 MOL     -0.046400
    178 C54         6.1050   -0.4560    4.1010 c3        1 MOL     -0.247387
    179 H86         7.1150   -0.8510    3.9950 h1        1 MOL      0.096090
    180 H87         6.1260    0.4290    4.7360 h1        1 MOL      0.096090
    181 H88         5.4650   -1.2140    4.5530 h1        1 MOL      0.096090
    182 H89         5.6720   -0.8020    2.0570 hn        1 MOL      0.164385
    183 Ca1        -1.8770   -0.4470   -1.3930 Ca        1 MOL      1.701579
    184 O25        -0.0940    0.3160   -3.1730 oh        1 MOL     -0.801388
    185 H90         0.8570    0.2010   -3.1960 ho        1 MOL      0.386323
    186 H91        -0.2690    1.0920   -3.7050 ho        1 MOL      0.386323
    187 O26        -1.0300   -2.7380   -2.5220 oh        1 MOL     -0.801388
    188 H92        -0.7090   -2.7370   -3.4230 ho        1 MOL      0.386323
    189 H93        -1.7330   -3.3840   -2.5210 ho        1 MOL      0.386323
@<TRIPOS>BOND
     1    1    2 1   
     2    1    4 1   
     3    1    5 1   
     4    1    6 1   
     5    2    3 2   
     6    2    7 1   
     7    7    8 1   
     8    7   15 1   
     9    8    9 1   
    10    8   11 1   
    11    8   16 1   
    12    9   10 2   
    13    9   19 1   
    14   11   12 1   
    15   11   17 1   
    16   11   18 1   
    17   12   13 1   
    18   12   14 1   
    19   19   20 1   
    20   19   28 1   
    21   20   21 1   
    22   20   23 1   
    23   20   29 1   
    24   21   22 2   
    25   21   41 1   
    26   23   24 1   
    27   23   30 1   
    28   23   31 1   
    29   24   25 1   
    30   24   32 1   
    31   24   33 1   
    32   25   26 1   
    33   25   34 1   
    34   25   35 1   
    35   26   27 1   
    36   26   36 1   
    37   26   37 1   
    38   27   38 1   
    39   27   39 1   
    40   27   40 1   
    41   41   42 1   
    42   41   49 1   
    43   42   43 1   
    44   42   45 1   
    45   42   50 1   
    46   43   44 2   
    47   43   53 1   
    48   45   46 1   
    49   45   51 1   
    50   45   52 1   
    51   46   47 1   
    52   46   48 1   
    53   53   54 1   
    54   53   57 1   
    55   54   55 1   
    56   54   58 1   
    57   54   59 1   
    58   55   56 2   
    59   55   60 1   
    60   60   61 1   
    61   60   68 1   
    62   61   62 1   
    63   61   64 1   
    64   61   69 1   
    65   62   63 2   
    66   62   72 1   
    67   64   65 1   
    68   64   70 1   
    69   64   71 1   
    70   65   66 1   
    71   65   67 1   
    72   72   73 1   
    73   72   76 1   
    74   73   74 1   
    75   73   77 1   
    76   73   78 1   
    77   74   75 2   
    78   74   79 1   
    79   79   80 1   
    80   79   86 1   
    81   80   81 1   
    82   80   83 1   
    83   80   87 1   
    84   81   82 2   
    85   81   93 1   
    86   83   84 1   
    87   83   85 1   
    88   83   88 1   
    89   84   90 1   
    90   84   91 1   
    91   84   92 1   
    92   85   89 1   
    93   93   94 1   
    94   93  101 1   
    95   94   95 1   
    96   94   97 1   
    97   94  102 1   
    98   95   96 2   
    99   95  112 1   
   100   97   98 1   
   101   97   99 1   
   102   97  103 1   
   103   98  100 1   
   104   98  104 1   
   105   98  105 1   
   106   99  106 1   
   107   99  107 1   
   108   99  108 1   
   109  100  109 1   
   110  100  110 1   
   111  100  111 1   
   112  112  113 1   
   113  112  119 1   
   114  113  114 1   
   115  113  116 1   
   116  113  120 1   
   117  114  115 2   
   118  114  126 1   
   119  116  117 1   
   120  116  118 1   
   121  116  121 1   
   122  117  123 1   
   123  117  124 1   
   124  117  125 1   
   125  118  122 1   
   126  126  127 1   
   127  126  133 1   
   128  127  128 1   
   129  127  130 1   
   130  127  134 1   
   131  128  129 2   
   132  128  140 1   
   133  130  131 1   
   134  130  132 1   
   135  130  135 1   
   136  131  137 1   
   137  131  138 1   
   138  131  139 1   
   139  132  136 1   
   140  140  141 1   
   141  140  149 1   
   142  141  142 1   
   143  141  144 1   
   144  141  150 1   
   145  142  143 2   
   146  142  162 1   
   147  144  145 1   
   148  144  151 1   
   149  144  152 1   
   150  145  146 1   
   151  145  153 1   
   152  145  154 1   
   153  146  147 1   
   154  146  155 1   
   155  146  156 1   
   156  147  148 1   
   157  147  157 1   
   158  147  158 1   
   159  148  159 1   
   160  148  160 1   
   161  148  161 1   
   162  162  163 1   
   163  162  171 1   
   164  163  164 1   
   165  163  166 1   
   166  163  172 1   
   167  164  165 2   
   168  164  177 1   
   169  166  167 1   
   170  166  173 1   
   171  166  174 1   
   172  167  168 1   
   173  167  175 1   
   174  167  176 1   
   175  168  169 1   
   176  168  170 1   
   177  177  178 1   
   178  177  182 1   
   179  178  179 1   
   180  178  180 1   
   181  178  181 1   
   182  184  185 1   
   183  184  186 1   
   184  187  188 1   
   185  187  189 1   
@<TRIPOS>SUBSTRUCTURE
     1 MOL         1 TEMP              0 ****  ****    0 ROOT
