@<TRIPOS>MOLECULE
MOL
  179   176     1     0     0
SMALL
resp


@<TRIPOS>ATOM
      1 C1          2.5740    2.7770    5.1080 c3        1 MOL     -0.527078
      2 C2          1.7950    2.6880    3.7140 c         1 MOL      0.798494
      3 O1          2.4610    2.5570    2.7700 o         1 MOL     -0.545216
      4 H1          2.7990    1.7710    5.4630 hc        1 MOL      0.126274
      5 H2          3.5030    3.3300    4.9710 hc        1 MOL      0.126274
      6 H3          1.9500    3.2880    5.8410 hc        1 MOL      0.126274
      7 N1          0.4810    2.6860    3.6560 n         1 MOL     -0.595734
      8 C3         -0.2500    2.6110    2.3920 c3        1 MOL      0.106075
      9 C4         -0.2140    3.9370    1.6610 c         1 MOL      0.304931
     10 O2         -0.8320    4.9670    1.9710 o         1 MOL     -0.541907
     11 C5         -1.6970    2.1400    2.7020 c3        1 MOL     -0.204206
     12 C6         -2.5650    1.9520    1.4180 c         1 MOL      0.706123
     13 O3         -3.7810    1.8460    1.5690 o         1 MOL     -0.655063
     14 O4         -2.0640    2.1120    0.2680 o         1 MOL     -0.655063
     15 H4         -0.0660    2.6810    4.5000 hn        1 MOL      0.321771
     16 H5          0.3130    1.9090    1.7740 h1        1 MOL      0.006767
     17 H6         -2.2300    2.8460    3.3420 hc        1 MOL      0.070997
     18 H7         -1.6280    1.1910    3.2290 hc        1 MOL      0.070997
     19 N2          0.4100    3.9090    0.5180 n         1 MOL      0.021214
     20 C7          0.8150    4.9740   -0.3860 c3        1 MOL     -0.003992
     21 C8         -0.3200    5.3250   -1.4030 c         1 MOL      0.510294
     22 O5         -0.2210    6.3360   -2.1160 o         1 MOL     -0.570597
     23 C9          2.1430    4.6700   -1.0850 c3        1 MOL     -0.102011
     24 C10         3.3060    4.5510   -0.0680 c3        1 MOL      0.100407
     25 C11         3.2930    5.5640    1.1730 c3        1 MOL     -0.135738
     26 C12         4.6470    5.3490    1.9250 c3        1 MOL     -0.006538
     27 N3          4.8560    6.4370    2.8820 n4        1 MOL     -0.152650
     28 H8          0.7830    3.0520    0.1470 hn        1 MOL      0.283616
     29 H9          0.8460    5.8500    0.2590 h1        1 MOL      0.025905
     30 H10         2.4270    5.5460   -1.6560 hc        1 MOL      0.047248
     31 H11         2.1470    3.7220   -1.6180 hc        1 MOL      0.047248
     32 H12         4.2500    4.7680   -0.5670 hc        1 MOL      0.029982
     33 H13         3.2920    3.5960    0.4580 hc        1 MOL      0.029982
     34 H14         2.4710    5.3360    1.8430 hc        1 MOL      0.041869
     35 H15         3.2740    6.6200    0.8810 hc        1 MOL      0.041869
     36 H16         5.4650    5.4740    1.2050 hx        1 MOL      0.082078
     37 H17         4.5550    4.3750    2.3880 hx        1 MOL      0.082078
     38 H18         4.1770    6.4020    3.6270 hn        1 MOL      0.269143
     39 H19         5.7870    6.4930    3.2840 hn        1 MOL      0.269143
     40 H20         4.7660    7.3850    2.5660 hn        1 MOL      0.269143
     41 N4         -1.4210    4.5520   -1.4590 n         1 MOL     -0.259117
     42 C13        -2.5490    4.7890   -2.3440 c3        1 MOL     -0.015512
     43 C14        -3.9280    4.5670   -1.7210 c         1 MOL      0.469615
     44 O6         -4.8920    4.8480   -2.4030 o         1 MOL     -0.527647
     45 C15        -2.3800    3.9500   -3.6220 c3        1 MOL     -0.154540
     46 C16        -2.5010    2.4520   -3.5790 c         1 MOL      0.834038
     47 O7         -2.7730    1.8350   -2.5340 o         1 MOL     -0.746466
     48 O8         -2.2530    1.9280   -4.6650 o         1 MOL     -0.746466
     49 H21        -1.4010    3.8220   -0.7590 hn        1 MOL     -0.012348
     50 H22        -2.5970    5.8180   -2.6990 h1        1 MOL      0.115992
     51 H23        -1.3710    4.1580   -3.9610 hc        1 MOL      0.048426
     52 H24        -3.0880    4.3870   -4.3330 hc        1 MOL      0.048426
     53 N5         -4.0480    4.1220   -0.4980 n         1 MOL     -0.386548
     54 C17        -5.3270    4.0360    0.1900 c3        1 MOL      0.014452
     55 C18        -6.2150    2.9400   -0.2720 c         1 MOL      0.374234
     56 O9         -7.4550    3.1250   -0.1830 o         1 MOL     -0.516943
     57 H25        -3.2210    3.8370    0.0050 hn        1 MOL      0.325642
     58 H26        -5.9080    4.9640    0.1850 h1        1 MOL      0.084214
     59 H27        -5.1820    3.9350    1.2670 h1        1 MOL      0.084214
     60 N6         -5.7310    1.7640   -0.8710 n         1 MOL     -0.085397
     61 C19        -6.5110    0.5700   -1.1380 c3        1 MOL     -0.276839
     62 C20        -6.8740   -0.2060    0.0570 c         1 MOL      0.457698
     63 O10        -7.7870   -1.0660    0.0310 o         1 MOL     -0.521074
     64 C21        -5.9030   -0.3440   -2.2730 c3        1 MOL     -0.112874
     65 C22        -4.5010   -0.7840   -2.0440 c         1 MOL      0.526537
     66 N7         -3.9440   -1.4150   -3.1210 n         1 MOL     -0.903346
     67 O11        -3.8270   -0.5130   -1.0360 o         1 MOL     -0.349688
     68 H28        -4.8120    1.8280   -1.2920 hn        1 MOL      0.190452
     69 H29        -7.4710    0.9040   -1.5380 h1        1 MOL      0.154071
     70 H30        -5.9840    0.1090   -3.2640 hc        1 MOL      0.097122
     71 H31        -6.5560   -1.2050   -2.4410 hc        1 MOL      0.097122
     72 H32        -4.5300   -1.5680   -3.9300 hn        1 MOL      0.404216
     73 H33        -2.9830   -1.7190   -3.0830 hn        1 MOL      0.404216
     74 N8         -6.1960    0.1090    1.1770 n         1 MOL     -0.164332
     75 C23        -6.1800   -0.6760    2.4350 c3        1 MOL     -0.333949
     76 C24        -5.1990   -1.8640    2.4320 c         1 MOL      0.551330
     77 O12        -5.3360   -2.7810    3.2670 o         1 MOL     -0.557897
     78 H34        -5.4000    0.7030    0.9830 hn        1 MOL      0.187038
     79 H35        -7.1710   -1.1070    2.5770 h1        1 MOL      0.156857
     80 H36        -5.9850    0.0670    3.2080 h1        1 MOL      0.156857
     81 N9         -4.1770   -1.8580    1.5590 n         1 MOL     -0.227223
     82 C25        -3.1340   -2.8730    1.6260 c3        1 MOL      0.053137
     83 C26        -1.6980   -2.1830    1.5070 c         1 MOL      0.553547
     84 O13        -1.6520   -1.0800    0.8540 o         1 MOL     -0.687180
     85 C27        -3.3720   -3.8550    0.4430 c3        1 MOL      0.171343
     86 C28        -4.6260   -4.7290    0.2200 ca        1 MOL      0.011118
     87 C29        -5.2460   -4.8630   -1.0630 ca        1 MOL     -0.174936
     88 C30        -5.1500   -5.3740    1.3170 ca        1 MOL     -0.174936
     89 C31        -6.4370   -5.6240   -1.2350 ca        1 MOL     -0.250305
     90 C32        -6.3870   -6.0340    1.2050 ca        1 MOL     -0.250305
     91 C33        -7.0290   -6.1780   -0.0830 ca        1 MOL      0.365494
     92 O14        -8.2010   -6.8200   -0.2390 oh        1 MOL     -0.535396
     93 H37        -4.0210   -1.0310    1.0040 hn        1 MOL      0.146774
     94 H38        -3.0950   -3.4290    2.5700 h1        1 MOL      0.031247
     95 H39        -2.5270   -4.5480    0.3940 hc        1 MOL     -0.061915
     96 H40        -3.4340   -3.2030   -0.4190 hc        1 MOL     -0.061915
     97 H41        -4.7970   -4.2710   -1.8530 ha        1 MOL      0.132068
     98 H42        -4.6480   -5.2040    2.2560 ha        1 MOL      0.132068
     99 H43        -6.9140   -5.7390   -2.1910 ha        1 MOL      0.151734
    100 H44        -6.8690   -6.3330    2.1160 ha        1 MOL      0.151734
    101 H45        -8.7160   -7.1190    0.5060 ho        1 MOL      0.401603
    102 N10        -0.6770   -2.8580    2.0180 n         1 MOL     -0.453562
    103 C34         0.6980   -2.6060    1.9320 c3        1 MOL     -0.070219
    104 C35         1.3080   -3.7660    1.1730 c         1 MOL      0.500382
    105 O15         0.9800   -4.9270    1.2880 o         1 MOL     -0.505978
    106 C36         1.3140   -2.4960    3.3670 c3        1 MOL      0.399038
    107 C37         0.5560   -1.5890    4.3490 c3        1 MOL      0.126113
    108 C38         2.7850   -2.2100    3.2280 c3        1 MOL     -0.349759
    109 C39         1.0610   -1.7410    5.8330 c3        1 MOL     -0.128160
    110 H46        -0.9340   -3.7480    2.4060 hn        1 MOL      0.290138
    111 H47         0.8370   -1.6730    1.3920 h1        1 MOL      0.083748
    112 H48         1.2420   -3.4720    3.8650 hc        1 MOL     -0.072469
    113 H49        -0.4930   -1.8970    4.3730 hc        1 MOL     -0.049148
    114 H50         0.7830   -0.5510    4.1290 hc        1 MOL     -0.049148
    115 H51         3.1900   -1.8460    4.1740 hc        1 MOL      0.056539
    116 H52         3.2910   -3.1190    2.8880 hc        1 MOL      0.056539
    117 H53         2.9470   -1.4550    2.4710 hc        1 MOL      0.056539
    118 H54         0.4490   -1.0910    6.4460 hc        1 MOL      0.030665
    119 H55         0.9450   -2.7350    6.2560 hc        1 MOL      0.030665
    120 H56         2.0880   -1.3860    5.9220 hc        1 MOL      0.030665
    121 N11         2.2120   -3.2530    0.2930 n         1 MOL     -0.374054
    122 C40         3.0600   -3.9800   -0.6640 c3        1 MOL     -0.050034
    123 C41         4.6180   -3.8780   -0.4210 c         1 MOL      0.538976
    124 O16         5.0520   -3.0160    0.3540 o         1 MOL     -0.477606
    125 C42         2.7780   -3.6270   -2.1480 c3        1 MOL     -0.037772
    126 O17         3.0030   -2.3100   -2.5340 oh        1 MOL     -0.543589
    127 H57         2.2840   -2.2490    0.2510 hn        1 MOL      0.465769
    128 H58         2.9720   -5.0590   -0.5690 h1        1 MOL      0.057115
    129 H59         1.7840   -3.9770   -2.4300 h1        1 MOL      0.076231
    130 H60         3.3750   -4.2430   -2.8230 h1        1 MOL      0.076231
    131 H61         2.3300   -1.7840   -2.0890 ho        1 MOL      0.387669
    132 N12         5.3930   -4.7040   -1.1290 n         1 MOL     -0.445677
    133 C43         6.8310   -4.6530   -0.9860 c3        1 MOL      0.225392
    134 C44         7.4220   -3.1950   -1.2480 c         1 MOL      0.398819
    135 O18         8.0630   -2.5900   -0.3420 o         1 MOL     -0.505812
    136 C45         7.4250   -5.6800   -1.9350 c3        1 MOL     -0.341426
    137 H62         4.9570   -5.4250   -1.6830 hn        1 MOL      0.281271
    138 H63         6.9790   -4.8400    0.0760 h1        1 MOL      0.044788
    139 H64         7.7060   -5.3200   -2.9130 hc        1 MOL      0.099785
    140 H65         8.3280   -5.9790   -1.4010 hc        1 MOL      0.099785
    141 H66         6.7050   -6.4990   -1.9500 hc        1 MOL      0.099785
    142 N13         6.9930   -2.5370   -2.3920 n         1 MOL     -0.243735
    143 C46         7.7110   -1.3390   -2.7830 c3        1 MOL     -0.000959
    144 C47         7.2830   -0.1550   -1.9690 c         1 MOL      0.473248
    145 O19         8.0060    0.8150   -1.8450 o         1 MOL     -0.527958
    146 C48         7.5850   -1.2790   -4.2720 c3        1 MOL     -0.255093
    147 H67         6.3670   -2.9900   -3.0360 hn        1 MOL      0.238988
    148 H68         8.7870   -1.3870   -2.6060 h1        1 MOL      0.115669
    149 H69         8.0010   -2.1500   -4.7760 hc        1 MOL      0.079592
    150 H70         6.5420   -1.1310   -4.5450 hc        1 MOL      0.079592
    151 H71         8.0190   -0.3370   -4.6400 hc        1 MOL      0.079592
    152 N14         6.1170   -0.2070   -1.2850 n         1 MOL     -0.105710
    153 C49         5.6190    0.8280   -0.2950 c3        1 MOL     -0.143284
    154 C50         6.3150    0.6600    1.0820 c         1 MOL      0.570543
    155 O20         6.6750    1.6570    1.6580 o         1 MOL     -0.575486
    156 C51         4.1160    0.6580   -0.1320 c3        1 MOL     -0.119187
    157 C52         3.2540    0.8490   -1.4550 c3        1 MOL      0.090119
    158 C53         1.8060    0.5230   -1.1910 c         1 MOL      0.760066
    159 O21         1.0490    1.5120   -0.8690 o         1 MOL     -0.826799
    160 O22         1.3520   -0.6980   -1.1540 o         1 MOL     -0.826799
    161 H72         5.7110   -1.1250   -1.2690 hn        1 MOL      0.060521
    162 H73         5.7500    1.8360   -0.6850 h1        1 MOL      0.104920
    163 H74         3.7050    1.4520    0.5060 hc        1 MOL      0.003832
    164 H75         3.8350   -0.3350    0.2140 hc        1 MOL      0.003832
    165 H76         3.5690    0.1440   -2.2170 hc        1 MOL     -0.033255
    166 H77         3.3740    1.8410   -1.8910 hc        1 MOL     -0.033255
    167 N15         6.5590   -0.5690    1.5560 n         1 MOL     -0.247661
    168 C54         7.4580   -0.8650    2.6980 c3        1 MOL     -0.147378
    169 H78         6.9650   -1.5600    3.3770 h1        1 MOL      0.087000
    170 H79         8.3810   -1.3120    2.3290 h1        1 MOL      0.087000
    171 H80         7.6880    0.0590    3.2290 h1        1 MOL      0.087000
    172 H81         6.2850   -1.3350    0.9660 hn        1 MOL      0.226308
    173 Ca1        -1.2130    0.2250   -1.3300 Ca        1 MOL      1.715281
    174 O23        -0.2220    0.5540   -3.8130 oh        1 MOL     -0.841144
    175 H82         0.4110    0.0910   -4.3690 ho        1 MOL      0.409392
    176 H83        -0.9020    0.8520   -4.4190 ho        1 MOL      0.409392
    177 O24        -1.1590   -1.9450   -2.7990 oh        1 MOL     -0.841144
    178 H84        -0.8580   -1.9470   -3.7110 ho        1 MOL      0.409392
    179 H85        -0.8760   -2.7930   -2.4450 ho        1 MOL      0.409392
@<TRIPOS>BOND
     1    1    2 1   
     2    1    4 1   
     3    1    5 1   
     4    1    6 1   
     5    2    3 2   
     6    2    7 1   
     7    7    8 1   
     8    7   15 1   
     9    8    9 1   
    10    8   11 1   
    11    8   16 1   
    12    9   10 2   
    13    9   19 1   
    14   11   12 1   
    15   11   17 1   
    16   11   18 1   
    17   12   13 1   
    18   12   14 1   
    19   19   20 1   
    20   19   28 1   
    21   20   21 1   
    22   20   23 1   
    23   20   29 1   
    24   21   22 2   
    25   21   41 1   
    26   23   24 1   
    27   23   30 1   
    28   23   31 1   
    29   24   25 1   
    30   24   32 1   
    31   24   33 1   
    32   25   26 1   
    33   25   34 1   
    34   25   35 1   
    35   26   27 1   
    36   26   36 1   
    37   26   37 1   
    38   27   38 1   
    39   27   39 1   
    40   27   40 1   
    41   41   42 1   
    42   41   49 1   
    43   42   43 1   
    44   42   45 1   
    45   42   50 1   
    46   43   44 2   
    47   43   53 1   
    48   45   46 1   
    49   45   51 1   
    50   45   52 1   
    51   46   47 1   
    52   46   48 1   
    53   53   54 1   
    54   53   57 1   
    55   54   55 1   
    56   54   58 1   
    57   54   59 1   
    58   55   56 2   
    59   55   60 1   
    60   60   61 1   
    61   60   68 1   
    62   61   62 1   
    63   61   64 1   
    64   61   69 1   
    65   62   63 2   
    66   62   74 1   
    67   64   65 1   
    68   64   70 1   
    69   64   71 1   
    70   65   66 1   
    71   65   67 2   
    72   66   72 1   
    73   66   73 1   
    74   74   75 1   
    75   74   78 1   
    76   75   76 1   
    77   75   79 1   
    78   75   80 1   
    79   76   77 2   
    80   76   81 1   
    81   81   82 1   
    82   81   93 1   
    83   82   83 1   
    84   82   85 1   
    85   82   94 1   
    86   83   84 2   
    87   83  102 1   
    88   85   86 1   
    89   85   95 1   
    90   85   96 1   
    91   86   87 ar  
    92   86   88 ar  
    93   87   89 ar  
    94   87   97 1   
    95   88   90 ar  
    96   88   98 1   
    97   89   91 ar  
    98   89   99 1   
    99   90   91 ar  
   100   90  100 1   
   101   91   92 1   
   102   92  101 1   
   103  102  103 1   
   104  102  110 1   
   105  103  104 1   
   106  103  106 1   
   107  103  111 1   
   108  104  105 2   
   109  104  121 1   
   110  106  107 1   
   111  106  108 1   
   112  106  112 1   
   113  107  109 1   
   114  107  113 1   
   115  107  114 1   
   116  108  115 1   
   117  108  116 1   
   118  108  117 1   
   119  109  118 1   
   120  109  119 1   
   121  109  120 1   
   122  121  122 1   
   123  121  127 1   
   124  122  123 1   
   125  122  125 1   
   126  122  128 1   
   127  123  124 2   
   128  123  132 1   
   129  125  126 1   
   130  125  129 1   
   131  125  130 1   
   132  126  131 1   
   133  132  133 1   
   134  132  137 1   
   135  133  134 1   
   136  133  136 1   
   137  133  138 1   
   138  134  135 2   
   139  134  142 1   
   140  136  139 1   
   141  136  140 1   
   142  136  141 1   
   143  142  143 1   
   144  142  147 1   
   145  143  144 1   
   146  143  146 1   
   147  143  148 1   
   148  144  145 2   
   149  144  152 1   
   150  146  149 1   
   151  146  150 1   
   152  146  151 1   
   153  152  153 1   
   154  152  161 1   
   155  153  154 1   
   156  153  156 1   
   157  153  162 1   
   158  154  155 2   
   159  154  167 1   
   160  156  157 1   
   161  156  163 1   
   162  156  164 1   
   163  157  158 1   
   164  157  165 1   
   165  157  166 1   
   166  158  159 1   
   167  158  160 1   
   168  167  168 1   
   169  167  172 1   
   170  168  169 1   
   171  168  170 1   
   172  168  171 1   
   173  174  175 1   
   174  174  176 1   
   175  177  178 1   
   176  177  179 1   
@<TRIPOS>SUBSTRUCTURE
     1 MOL         1 TEMP              0 ****  ****    0 ROOT
