@<TRIPOS>MOLECULE
MOL
  189   185     1     0     0
SMALL
resp


@<TRIPOS>ATOM
      1 C1          0.3210    2.0420    5.4140 c3        1 MOL     -0.203281
      2 C2         -0.2530    1.9990    4.0090 c         1 MOL      0.706722
      3 O1          0.4200    2.4960    3.1020 o         1 MOL     -0.584088
      4 H1          0.9130    2.9490    5.5360 hc        1 MOL      0.045917
      5 H2         -0.4910    2.0390    6.1400 hc        1 MOL      0.045917
      6 H3          0.9560    1.1710    5.5740 hc        1 MOL      0.045917
      7 N1         -1.4890    1.4070    3.8670 n         1 MOL     -0.611111
      8 C3         -2.0760    1.2720    2.5790 c3        1 MOL      0.337264
      9 C4         -2.6870    2.5790    2.1610 c         1 MOL      0.222815
     10 O2         -3.6930    2.9540    2.7150 o         1 MOL     -0.528681
     11 C5         -3.1780    0.2360    2.5570 c3        1 MOL     -0.187743
     12 C6         -3.8490    0.1200    1.2010 c         1 MOL      0.631325
     13 O3         -3.1380    0.5050    0.1960 o         1 MOL     -0.587824
     14 O4         -4.9340   -0.5010    1.1300 o         1 MOL     -0.587824
     15 H4         -2.0190    1.0080    4.6370 hn        1 MOL      0.328266
     16 H5         -1.3370    0.9480    1.8480 h1        1 MOL     -0.007484
     17 H6         -3.9920    0.3770    3.2620 hc        1 MOL      0.031876
     18 H7         -2.6910   -0.6960    2.8220 hc        1 MOL      0.031876
     19 N2         -2.1120    3.2880    1.1160 n         1 MOL     -0.047571
     20 C7         -2.4820    4.6350    0.6380 c3        1 MOL      0.031966
     21 C8         -3.0550    4.6820   -0.8380 c         1 MOL      0.481270
     22 O5         -3.1380    5.7670   -1.4250 o         1 MOL     -0.562339
     23 C9         -1.1870    5.4530    0.7420 c3        1 MOL      0.076928
     24 C10        -0.7830    5.9220    2.1210 c3        1 MOL      0.149343
     25 C11        -1.8860    6.6600    2.8930 c3        1 MOL     -0.540849
     26 C12        -1.4050    7.2550    4.2420 c3        1 MOL      0.122483
     27 N3         -2.6010    7.8460    4.8620 n4        1 MOL     -0.287464
     28 H8         -1.3010    2.8110    0.7410 hn        1 MOL      0.109695
     29 H9         -3.2610    5.1330    1.2140 h1        1 MOL     -0.001049
     30 H10        -1.4120    6.3200    0.1190 hc        1 MOL     -0.026998
     31 H11        -0.3470    4.9100    0.3300 hc        1 MOL     -0.026998
     32 H12         0.1010    6.5500    1.9350 hc        1 MOL      0.019153
     33 H13        -0.3740    5.1420    2.7630 hc        1 MOL      0.019153
     34 H14        -2.5600    5.9070    3.2890 hc        1 MOL      0.183728
     35 H15        -2.4260    7.4550    2.3830 hc        1 MOL      0.183728
     36 H16        -0.6400    8.0230    4.1570 hx        1 MOL      0.070548
     37 H17        -0.9780    6.4460    4.8370 hx        1 MOL      0.070548
     38 H18        -2.3000    8.4860    5.5890 hn        1 MOL      0.305818
     39 H19        -2.9560    8.5480    4.2270 hn        1 MOL      0.305818
     40 H20        -3.3720    7.2490    5.1070 hn        1 MOL      0.305818
     41 N4         -3.5220    3.5940   -1.3750 n         1 MOL     -0.145694
     42 C13        -4.3660    3.5830   -2.5360 c3        1 MOL     -0.128923
     43 C14        -5.5910    2.7760   -2.2400 c         1 MOL      0.587925
     44 O6         -6.5250    2.7450   -3.0420 o         1 MOL     -0.518906
     45 C15        -3.4660    3.2250   -3.7900 c3        1 MOL     -0.087565
     46 C16        -2.3920    2.1860   -3.5810 c         1 MOL      0.761651
     47 O7         -2.7110    1.1150   -3.0220 o         1 MOL     -0.720480
     48 O8         -1.2400    2.3960   -3.9940 o         1 MOL     -0.720480
     49 H21        -3.4550    2.7760   -0.7850 hn        1 MOL      0.025285
     50 H22        -4.6790    4.6180   -2.6690 h1        1 MOL      0.116318
     51 H23        -2.9350    4.1470   -4.0690 hc        1 MOL      0.025593
     52 H24        -4.0290    2.9550   -4.6780 hc        1 MOL      0.025593
     53 N5         -5.6940    2.2310   -0.9910 n         1 MOL     -0.551412
     54 C17        -6.9720    1.6240   -0.6130 c3        1 MOL     -0.001673
     55 C18        -7.3630    0.2170   -1.1770 c         1 MOL      0.382105
     56 O9         -8.5440   -0.1160   -1.4730 o         1 MOL     -0.574882
     57 H25        -4.8630    2.1060   -0.4420 hn        1 MOL      0.388331
     58 H26        -7.6850    2.3260   -1.0560 h1        1 MOL      0.069652
     59 H27        -7.2300    1.6180    0.4460 h1        1 MOL      0.069652
     60 N6         -6.3100   -0.5250   -1.5370 n         1 MOL     -0.016550
     61 C19        -6.5470   -1.7610   -2.2950 c3        1 MOL      0.012100
     62 C20        -6.6430   -2.9200   -1.2010 c         1 MOL      0.385364
     63 O10        -6.9020   -4.0640   -1.5930 o         1 MOL     -0.531051
     64 C21        -5.4500   -1.8240   -3.3760 c3        1 MOL     -0.427460
     65 C22        -4.0580   -1.9660   -2.7590 c         1 MOL      0.826622
     66 O11        -3.8410   -2.0390   -1.5170 o         1 MOL     -0.731122
     67 O12        -3.0970   -2.0920   -3.5440 o         1 MOL     -0.731122
     68 H28        -5.3660   -0.3020   -1.2430 hn        1 MOL      0.087808
     69 H29        -7.5260   -1.7440   -2.7870 h1        1 MOL      0.127793
     70 H30        -5.5340   -0.9510   -4.0220 hc        1 MOL      0.127277
     71 H31        -5.5970   -2.7940   -3.8610 hc        1 MOL      0.127277
     72 N7         -6.5430   -2.6720    0.1260 n         1 MOL     -0.182593
     73 C23        -6.5570   -3.6970    1.2180 c3        1 MOL     -0.292687
     74 C24        -5.2190   -4.4510    1.5600 c         1 MOL      0.499402
     75 O13        -5.1270   -5.4840    2.3310 o         1 MOL     -0.568861
     76 H32        -6.2870   -1.7190    0.3350 hn        1 MOL      0.177970
     77 H33        -7.3110   -4.4680    1.0790 h1        1 MOL      0.143716
     78 H34        -6.6130   -3.1860    2.1770 h1        1 MOL      0.143716
     79 N8         -4.1180   -3.8940    1.0450 n         1 MOL     -0.179842
     80 C25        -2.7670   -4.4420    1.1300 c3        1 MOL     -0.205696
     81 C26        -1.6370   -3.3680    1.0920 c         1 MOL      0.697630
     82 O14        -1.8850   -2.2240    0.6810 o         1 MOL     -0.638324
     83 C27        -2.5350   -5.4080   -0.1260 c3        1 MOL      0.217407
     84 C28        -3.5690   -6.5010   -0.1930 c3        1 MOL     -0.387967
     85 O15        -2.5940   -4.6700   -1.3060 oh        1 MOL     -0.561392
     86 H35        -4.1710   -3.0160    0.5410 hn        1 MOL      0.239761
     87 H36        -2.7570   -5.0250    2.0560 h1        1 MOL      0.097045
     88 H37        -1.5370   -5.8670   -0.1320 h1        1 MOL      0.073768
     89 H38        -3.4880   -4.3660   -1.4350 ho        1 MOL      0.430492
     90 H39        -3.4060   -7.2940   -0.9200 hc        1 MOL      0.114233
     91 H40        -3.7000   -7.0040    0.7610 hc        1 MOL      0.114233
     92 H41        -4.5180   -5.9890   -0.4120 hc        1 MOL      0.114233
     93 N9         -0.4750   -3.7900    1.5470 n         1 MOL     -0.488781
     94 C29         0.7270   -3.0210    1.7870 c3        1 MOL     -0.045727
     95 C30         2.0030   -3.5840    1.1350 c         1 MOL      0.575208
     96 O16         2.3100   -4.8080    1.2550 o         1 MOL     -0.568690
     97 C31         0.9250   -2.9400    3.3430 c3        1 MOL      0.075757
     98 C32        -0.3350   -2.6520    4.1650 c3        1 MOL      0.266925
     99 C33         1.9300   -1.7340    3.5480 c3        1 MOL     -0.490718
    100 C34        -0.0490   -3.1090    5.6340 c3        1 MOL     -0.245361
    101 H42        -0.4720   -4.7890    1.6630 hn        1 MOL      0.263869
    102 H43         0.5970   -1.9980    1.4280 h1        1 MOL      0.171692
    103 H44         1.3780   -3.8390    3.7720 hc        1 MOL      0.033942
    104 H45        -1.1750   -3.2500    3.8050 hc        1 MOL     -0.054086
    105 H46        -0.6710   -1.6120    4.1190 hc        1 MOL     -0.054086
    106 H47         2.2040   -1.5610    4.5860 hc        1 MOL      0.104356
    107 H48         2.8190   -2.0570    3.0060 hc        1 MOL      0.104356
    108 H49         1.4670   -0.7880    3.2650 hc        1 MOL      0.104356
    109 H50        -0.8920   -2.7000    6.1960 hc        1 MOL      0.048575
    110 H51        -0.1850   -4.1880    5.7020 hc        1 MOL      0.048575
    111 H52         0.9150   -2.9610    6.1080 hc        1 MOL      0.048575
    112 N10         2.5540   -2.7630    0.2910 n         1 MOL     -0.354253
    113 C35         3.7460   -2.9990   -0.5800 c3        1 MOL      0.046854
    114 C36         5.0510   -2.5860    0.1500 c         1 MOL      0.315354
    115 O17         5.0260   -1.8980    1.1650 o         1 MOL     -0.308644
    116 C37         3.7890   -2.1980   -1.8910 c3        1 MOL      0.135541
    117 C38         2.7000   -2.6950   -2.7860 c3        1 MOL     -0.553573
    118 O18         3.4960   -0.8600   -1.6040 oh        1 MOL     -0.428833
    119 H53         2.1010   -1.8680    0.1710 hn        1 MOL      0.243877
    120 H54         3.9250   -4.0560   -0.7690 h1        1 MOL      0.088000
    121 H55         4.7420   -2.1950   -2.4300 h1        1 MOL      0.071311
    122 H56         2.5610   -0.8230   -1.3450 ho        1 MOL      0.272370
    123 H57         2.7210   -3.7720   -2.9030 hc        1 MOL      0.163245
    124 H58         1.7920   -2.5240   -2.2240 hc        1 MOL      0.163245
    125 H59         2.6800   -2.2650   -3.7890 hc        1 MOL      0.163245
    126 N11         6.2010   -2.8910   -0.4800 n         1 MOL     -0.129157
    127 C39         7.6080   -2.4340   -0.0770 c3        1 MOL     -0.379151
    128 C40         7.8080   -0.9230   -0.0260 c         1 MOL      0.529122
    129 O19         8.1110   -0.3560    0.9880 o         1 MOL     -0.453446
    130 C41         8.7900   -3.0170   -0.9740 c3        1 MOL      0.591160
    131 C42        10.2060   -2.9180   -0.2990 c3        1 MOL     -0.520577
    132 O20         8.5510   -4.4310   -1.2190 oh        1 MOL     -0.621451
    133 H60         6.1060   -3.5400   -1.2460 hn        1 MOL      0.160311
    134 H61         7.7920   -2.8610    0.9000 h1        1 MOL      0.173346
    135 H62         8.8150   -2.4570   -1.9090 h1        1 MOL     -0.097572
    136 H63         8.9680   -4.7590   -2.0170 ho        1 MOL      0.381554
    137 H64        10.1860   -3.0790    0.7840 hc        1 MOL      0.139929
    138 H65        10.8610   -3.7250   -0.6200 hc        1 MOL      0.139929
    139 H66        10.5140   -1.8830   -0.4530 hc        1 MOL      0.139929
    140 N12         7.4360   -0.1810   -1.1390 n         1 MOL     -0.306918
    141 C43         7.3230    1.2530   -1.2380 c3        1 MOL     -0.179384
    142 C44         6.3860    1.8210   -0.1300 c         1 MOL      0.391801
    143 O21         6.7770    2.7310    0.6020 o         1 MOL     -0.473518
    144 C45         6.9370    1.5100   -2.7240 c3        1 MOL     -0.158777
    145 C46         6.7860    2.9690   -3.0490 c3        1 MOL     -0.084794
    146 C47         6.0510    3.0320   -4.4300 c3        1 MOL     -0.090822
    147 C48         5.9470    4.5040   -4.7660 c3        1 MOL      0.253961
    148 N13         5.5380    4.7230   -6.1620 n4        1 MOL     -0.602917
    149 H67         6.9650   -0.6750   -1.8850 hn        1 MOL      0.220148
    150 H68         8.3130    1.7020   -1.1290 h1        1 MOL      0.150908
    151 H69         6.0220    0.9720   -2.9750 hc        1 MOL      0.081645
    152 H70         7.7110    1.2350   -3.4340 hc        1 MOL      0.081645
    153 H71         7.7480    3.4490   -3.1570 hc        1 MOL      0.065950
    154 H72         6.2090    3.5780   -2.3480 hc        1 MOL      0.065950
    155 H73         5.0360    2.6310   -4.4130 hc        1 MOL      0.050623
    156 H74         6.6770    2.5870   -5.1900 hc        1 MOL      0.050623
    157 H75         6.8590    5.0520   -4.5180 hx        1 MOL      0.046641
    158 H76         5.2580    4.9950   -4.0850 hx        1 MOL      0.046641
    159 H77         5.4380    5.6850   -6.4630 hn        1 MOL      0.382382
    160 H78         6.2570    4.2500   -6.6950 hn        1 MOL      0.382382
    161 H79         4.6200    4.3880   -6.3820 hn        1 MOL      0.382382
    162 N14         5.1870    1.1600    0.0720 n         1 MOL     -0.060058
    163 C49         4.2130    1.5540    1.1030 c3        1 MOL     -0.130727
    164 C50         4.7210    1.4590    2.5620 c         1 MOL      0.441765
    165 O22         4.7100    2.5000    3.1760 o         1 MOL     -0.533187
    166 C51         2.9070    0.8330    0.9700 c3        1 MOL     -0.025256
    167 C52         2.0740    1.5110   -0.1470 c3        1 MOL     -0.198435
    168 C53         0.7630    0.7320   -0.4090 c         1 MOL      0.706517
    169 O23         0.7650   -0.5280   -0.4960 o         1 MOL     -0.629598
    170 O24        -0.2640    1.4260   -0.6210 o         1 MOL     -0.629598
    171 H80         4.9680    0.3500   -0.4960 hn        1 MOL      0.119918
    172 H81         4.0860    2.6170    0.8910 h1        1 MOL      0.091205
    173 H82         2.3510    0.9980    1.8940 hc        1 MOL      0.050437
    174 H83         3.0430   -0.2410    0.8460 hc        1 MOL      0.050437
    175 H84         2.5960    1.5320   -1.1030 hc        1 MOL      0.059478
    176 H85         2.0130    2.5640    0.0900 hc        1 MOL      0.059478
    177 N15         5.3820    0.3340    2.9030 n         1 MOL     -0.025811
    178 C54         5.9700    0.2060    4.2640 c3        1 MOL     -0.480219
    179 H86         6.5870    1.0800    4.4760 h1        1 MOL      0.155469
    180 H87         5.1710    0.1390    5.0020 h1        1 MOL      0.155469
    181 H88         6.5860   -0.6920    4.3130 h1        1 MOL      0.155469
    182 H89         5.3890   -0.4770    2.3010 hn        1 MOL      0.122868
    183 Ca1        -1.6810   -0.7280   -1.5120 Ca        1 MOL      1.561572
    184 O25        -0.1980    0.0610   -3.6540 oh        1 MOL     -0.863969
    185 H90        -0.7050    0.8750   -3.6870 ho        1 MOL      0.401484
    186 H91         0.1220   -0.0630   -4.5440 ho        1 MOL      0.401484
    187 O26        -0.6630   -2.9370   -2.1200 oh        1 MOL     -0.863969
    188 H92        -0.3780   -3.2880   -2.9640 ho        1 MOL      0.401484
    189 H93        -1.2870   -3.5850   -1.7980 ho        1 MOL      0.401484
@<TRIPOS>BOND
     1    1    2 1   
     2    1    4 1   
     3    1    5 1   
     4    1    6 1   
     5    2    3 2   
     6    2    7 1   
     7    7    8 1   
     8    7   15 1   
     9    8    9 1   
    10    8   11 1   
    11    8   16 1   
    12    9   10 2   
    13    9   19 1   
    14   11   12 1   
    15   11   17 1   
    16   11   18 1   
    17   12   13 1   
    18   12   14 1   
    19   19   20 1   
    20   19   28 1   
    21   20   21 1   
    22   20   23 1   
    23   20   29 1   
    24   21   22 2   
    25   21   41 1   
    26   23   24 1   
    27   23   30 1   
    28   23   31 1   
    29   24   25 1   
    30   24   32 1   
    31   24   33 1   
    32   25   26 1   
    33   25   34 1   
    34   25   35 1   
    35   26   27 1   
    36   26   36 1   
    37   26   37 1   
    38   27   38 1   
    39   27   39 1   
    40   27   40 1   
    41   41   42 1   
    42   41   49 1   
    43   42   43 1   
    44   42   45 1   
    45   42   50 1   
    46   43   44 2   
    47   43   53 1   
    48   45   46 1   
    49   45   51 1   
    50   45   52 1   
    51   46   47 1   
    52   46   48 1   
    53   53   54 1   
    54   53   57 1   
    55   54   55 1   
    56   54   58 1   
    57   54   59 1   
    58   55   56 2   
    59   55   60 1   
    60   60   61 1   
    61   60   68 1   
    62   61   62 1   
    63   61   64 1   
    64   61   69 1   
    65   62   63 2   
    66   62   72 1   
    67   64   65 1   
    68   64   70 1   
    69   64   71 1   
    70   65   66 1   
    71   65   67 1   
    72   72   73 1   
    73   72   76 1   
    74   73   74 1   
    75   73   77 1   
    76   73   78 1   
    77   74   75 2   
    78   74   79 1   
    79   79   80 1   
    80   79   86 1   
    81   80   81 1   
    82   80   83 1   
    83   80   87 1   
    84   81   82 2   
    85   81   93 1   
    86   83   84 1   
    87   83   85 1   
    88   83   88 1   
    89   84   90 1   
    90   84   91 1   
    91   84   92 1   
    92   85   89 1   
    93   93   94 1   
    94   93  101 1   
    95   94   95 1   
    96   94   97 1   
    97   94  102 1   
    98   95   96 2   
    99   95  112 1   
   100   97   98 1   
   101   97   99 1   
   102   97  103 1   
   103   98  100 1   
   104   98  104 1   
   105   98  105 1   
   106   99  106 1   
   107   99  107 1   
   108   99  108 1   
   109  100  109 1   
   110  100  110 1   
   111  100  111 1   
   112  112  113 1   
   113  112  119 1   
   114  113  114 1   
   115  113  116 1   
   116  113  120 1   
   117  114  115 2   
   118  114  126 1   
   119  116  117 1   
   120  116  118 1   
   121  116  121 1   
   122  117  123 1   
   123  117  124 1   
   124  117  125 1   
   125  118  122 1   
   126  126  127 1   
   127  126  133 1   
   128  127  128 1   
   129  127  130 1   
   130  127  134 1   
   131  128  129 2   
   132  128  140 1   
   133  130  131 1   
   134  130  132 1   
   135  130  135 1   
   136  131  137 1   
   137  131  138 1   
   138  131  139 1   
   139  132  136 1   
   140  140  141 1   
   141  140  149 1   
   142  141  142 1   
   143  141  144 1   
   144  141  150 1   
   145  142  143 2   
   146  142  162 1   
   147  144  145 1   
   148  144  151 1   
   149  144  152 1   
   150  145  146 1   
   151  145  153 1   
   152  145  154 1   
   153  146  147 1   
   154  146  155 1   
   155  146  156 1   
   156  147  148 1   
   157  147  157 1   
   158  147  158 1   
   159  148  159 1   
   160  148  160 1   
   161  148  161 1   
   162  162  163 1   
   163  162  171 1   
   164  163  164 1   
   165  163  166 1   
   166  163  172 1   
   167  164  165 2   
   168  164  177 1   
   169  166  167 1   
   170  166  173 1   
   171  166  174 1   
   172  167  168 1   
   173  167  175 1   
   174  167  176 1   
   175  168  169 1   
   176  168  170 1   
   177  177  178 1   
   178  177  182 1   
   179  178  179 1   
   180  178  180 1   
   181  178  181 1   
   182  184  185 1   
   183  184  186 1   
   184  187  188 1   
   185  187  189 1   
@<TRIPOS>SUBSTRUCTURE
     1 MOL         1 TEMP              0 ****  ****    0 ROOT
