@<TRIPOS>MOLECULE
MOL
  176   174     1     0     0
SMALL
resp


@<TRIPOS>ATOM
      1 C1          0.5440    4.3120    6.4300 c3        1 MOL     -0.367922
      2 C2          0.4560    3.4760    5.1720 c         1 MOL      0.766018
      3 O1          1.4110    2.9530    4.6160 o         1 MOL     -0.591082
      4 H1          1.4500    4.0510    6.9770 hc        1 MOL      0.094851
      5 H2          0.5740    5.3680    6.1640 hc        1 MOL      0.094851
      6 H3         -0.3260    4.1190    7.0570 hc        1 MOL      0.094851
      7 N1         -0.7630    3.3460    4.6420 n         1 MOL     -0.635129
      8 C3         -1.0140    2.9980    3.2410 c3        1 MOL      0.230525
      9 C4         -1.0480    4.2030    2.2130 c         1 MOL      0.556852
     10 O2         -1.4420    5.3260    2.5770 o         1 MOL     -0.552122
     11 C5         -2.2270    2.0850    3.2350 c3        1 MOL     -0.362056
     12 C6         -2.3530    1.3310    1.8440 c         1 MOL      0.984446
     13 O3         -2.5470    0.0910    1.7770 o         1 MOL     -0.831748
     14 O4         -2.3940    1.9660    0.7850 o         1 MOL     -0.831748
     15 H4         -1.5680    3.6750    5.1680 hn        1 MOL      0.316772
     16 H5         -0.2020    2.3230    2.9820 h1        1 MOL      0.001149
     17 H6         -3.0590    2.7890    3.2930 hc        1 MOL      0.088555
     18 H7         -2.2660    1.3480    4.0320 hc        1 MOL      0.088555
     19 N2         -0.5720    3.9840    0.9760 n         1 MOL     -0.417656
     20 C7         -0.4730    4.9870   -0.0750 c3        1 MOL     -0.232274
     21 C8         -1.7910    5.2610   -0.8530 c         1 MOL      0.587616
     22 O5         -2.0820    6.3580   -1.3910 o         1 MOL     -0.584338
     23 C9          0.6640    4.5740   -1.0160 c3        1 MOL      0.235842
     24 C10         1.0470    5.7120   -2.0630 c3        1 MOL     -0.183554
     25 C11         2.6500    5.7530   -2.1620 c3        1 MOL     -0.076429
     26 C12         3.1050    6.7480   -3.2240 c3        1 MOL      0.033480
     27 N3          2.3750    6.7700   -4.4800 n4        1 MOL     -0.374606
     28 H8         -0.3580    3.0250    0.7320 hn        1 MOL      0.247073
     29 H9         -0.0740    5.8900    0.3950 h1        1 MOL      0.153945
     30 H10         0.4880    3.6810   -1.6180 hc        1 MOL      0.022165
     31 H11         1.5450    4.3110   -0.4340 hc        1 MOL      0.022165
     32 H12         0.7640    6.6550   -1.5850 hc        1 MOL      0.033287
     33 H13         0.4190    5.5500   -2.9320 hc        1 MOL      0.033287
     34 H14         2.9720    4.7450   -2.4320 hc        1 MOL      0.080551
     35 H15         3.0550    5.9050   -1.1600 hc        1 MOL      0.080551
     36 H16         4.1930    6.6760   -3.3450 hx        1 MOL      0.081427
     37 H17         2.9020    7.7590   -2.8710 hx        1 MOL      0.081427
     38 H18         1.4790    7.1810   -4.2610 hn        1 MOL      0.336733
     39 H19         2.9370    7.2560   -5.1690 hn        1 MOL      0.336733
     40 H20         2.2310    5.8090   -4.7550 hn        1 MOL      0.336733
     41 N4         -2.7460    4.2930   -0.8160 n         1 MOL     -0.331002
     42 C13        -4.0440    4.3290   -1.5350 c3        1 MOL     -0.086523
     43 C14        -5.2690    3.7180   -0.8630 c         1 MOL      0.523258
     44 O6         -6.3400    4.1240   -1.2650 o         1 MOL     -0.545336
     45 C15        -3.8190    3.4500   -2.8590 c3        1 MOL     -0.079535
     46 C16        -3.1910    2.0680   -2.5360 c         1 MOL      0.563959
     47 O7         -3.7940    1.2500   -1.7560 o         1 MOL     -0.693019
     48 O8         -1.9840    1.8640   -2.9630 o         1 MOL     -0.693019
     49 H21        -2.5210    3.4920   -0.2460 hn        1 MOL      0.341743
     50 H22        -4.2470    5.3670   -1.8010 h1        1 MOL      0.131823
     51 H23        -3.1710    3.9850   -3.5440 hc        1 MOL      0.041150
     52 H24        -4.7580    3.4330   -3.4140 hc        1 MOL      0.041150
     53 N5         -5.0910    2.9450    0.1970 n         1 MOL     -0.254905
     54 C17        -6.1580    2.3810    1.0070 c3        1 MOL     -0.021860
     55 C18        -6.8820    1.1120    0.4630 c         1 MOL      0.458861
     56 O9         -8.0490    0.8380    0.7890 o         1 MOL     -0.573796
     57 H25        -4.1150    2.7850    0.4300 hn        1 MOL      0.118294
     58 H26        -6.9150    3.1550    1.1480 h1        1 MOL      0.065250
     59 H27        -5.8320    2.1910    2.0300 h1        1 MOL      0.065250
     60 N6         -6.2800    0.4920   -0.5380 n         1 MOL     -0.189086
     61 C19        -6.7410   -0.7900   -1.1210 c3        1 MOL     -0.071221
     62 C20        -6.6800   -2.1240   -0.2530 c         1 MOL      0.376528
     63 O10        -6.9930   -3.1700   -0.7870 o         1 MOL     -0.475622
     64 C21        -6.0170   -0.9770   -2.4910 c3        1 MOL     -0.463905
     65 C22        -4.6310   -1.5860   -2.3470 c         1 MOL      0.739618
     66 N7         -4.0620   -2.1070   -3.3980 n         1 MOL     -0.535636
     67 O11        -4.0320   -1.5660   -1.2360 o         1 MOL     -0.668057
     68 H28        -5.4350    0.8720   -0.9410 hn        1 MOL      0.208744
     69 H29        -7.7820   -0.5920   -1.3530 h1        1 MOL      0.153638
     70 H30        -6.0030   -0.0500   -3.0590 hc        1 MOL      0.152883
     71 H31        -6.5650   -1.7780   -2.9980 hc        1 MOL      0.152883
     72 H32        -4.5010   -2.0420   -4.2990 hn        1 MOL      0.293188
     73 H33        -3.0840   -2.2860   -3.2070 hn        1 MOL      0.293188
     74 N8         -6.2960   -2.0670    1.0040 n         1 MOL     -0.167937
     75 C23        -6.3380   -3.0990    2.0450 c3        1 MOL     -0.254863
     76 C24        -5.0070   -3.8490    2.2900 c         1 MOL      0.500466
     77 O12        -4.9940   -4.7230    3.1660 o         1 MOL     -0.558341
     78 H34        -5.9860   -1.1730    1.3690 hn        1 MOL      0.228546
     79 H35        -7.0820   -3.8360    1.7290 h1        1 MOL      0.141308
     80 H36        -6.5940   -2.5610    2.9600 h1        1 MOL      0.141308
     81 N9         -3.8960   -3.4960    1.6220 n         1 MOL     -0.126764
     82 C25        -2.5500   -4.0540    1.8650 c3        1 MOL     -0.079311
     83 C26        -1.3640   -3.2240    1.3930 c         1 MOL      0.590260
     84 O13        -1.5440   -2.3670    0.4980 o         1 MOL     -0.547618
     85 C27        -2.3970   -5.4310    1.1670 c3        1 MOL     -0.048885
     86 C28        -2.3650   -5.4070   -0.3280 ca        1 MOL     -0.068197
     87 C29        -1.1410   -5.3260   -0.9500 ca        1 MOL     -0.061774
     88 C30        -3.5760   -5.3940   -1.0910 ca        1 MOL     -0.061774
     89 C31        -1.0000   -5.2440   -2.2980 ca        1 MOL     -0.280763
     90 C32        -3.4600   -5.2770   -2.4860 ca        1 MOL     -0.280763
     91 C33        -2.1660   -5.2230   -3.0580 ca        1 MOL      0.327752
     92 O14        -2.1770   -5.1270   -4.4670 oh        1 MOL     -0.538930
     93 H37        -4.0170   -2.6910    1.0230 hn        1 MOL      0.181290
     94 H38        -2.3140   -4.1450    2.9240 h1        1 MOL      0.071649
     95 H39        -3.1230   -6.1590    1.5220 hc        1 MOL      0.049686
     96 H40        -1.4380   -5.8270    1.5140 hc        1 MOL      0.049686
     97 H41        -0.2580   -5.2960   -0.3200 ha        1 MOL      0.136010
     98 H42        -4.5530   -5.3660   -0.6310 ha        1 MOL      0.136010
     99 H43        -0.0510   -5.1280   -2.8040 ha        1 MOL      0.144305
    100 H44        -4.3180   -5.3360   -3.1450 ha        1 MOL      0.144305
    101 H45        -1.3590   -5.1900   -4.9470 ho        1 MOL      0.371432
    102 N10        -0.1550   -3.4770    1.8660 n         1 MOL     -0.551424
    103 C34         1.0800   -2.7460    1.5350 c3        1 MOL     -0.011815
    104 C35         2.1730   -3.6420    1.0560 c         1 MOL      0.547172
    105 O15         2.1300   -4.8090    1.4630 o         1 MOL     -0.572312
    106 C36         1.5760   -1.8900    2.7150 c3        1 MOL      0.223166
    107 C37         1.8230   -2.7430    3.9280 c3        1 MOL     -0.069526
    108 C38         0.6020   -0.6270    2.9400 c3        1 MOL     -0.430625
    109 C39         2.4530   -1.8900    5.0570 c3        1 MOL     -0.142816
    110 H46        -0.0080   -4.2210    2.5360 hn        1 MOL      0.360284
    111 H47         0.8830   -2.0960    0.6770 h1        1 MOL      0.096290
    112 H48         2.5380   -1.4380    2.4650 hc        1 MOL     -0.096302
    113 H49         2.6130   -3.4630    3.7050 hc        1 MOL      0.028563
    114 H50         0.9310   -3.3260    4.1420 hc        1 MOL      0.028563
    115 H51         0.2010   -0.4500    1.9490 hc        1 MOL      0.138942
    116 H52        -0.2250   -0.8770    3.6040 hc        1 MOL      0.138942
    117 H53         1.1560    0.2300    3.3310 hc        1 MOL      0.138942
    118 H54         3.3740   -1.4480    4.7040 hc        1 MOL      0.043511
    119 H55         1.7640   -1.0980    5.3420 hc        1 MOL      0.043511
    120 H56         2.7240   -2.5390    5.8950 hc        1 MOL      0.043511
    121 N11         3.1260   -3.1590    0.2230 n         1 MOL     -0.467456
    122 C40         4.4020   -3.8300   -0.2740 c3        1 MOL      0.200405
    123 C41         5.6400   -2.9210   -0.0830 c         1 MOL      0.267993
    124 O16         5.5090   -1.7690    0.2600 o         1 MOL     -0.332060
    125 C42         4.3370   -3.9880   -1.8100 c3        1 MOL      0.073495
    126 O17         4.2400   -2.6740   -2.3480 oh        1 MOL     -0.571059
    127 H57         3.0580   -2.1920   -0.0570 hn        1 MOL      0.312921
    128 H58         4.6360   -4.8570    0.0210 h1        1 MOL      0.052041
    129 H59         3.5020   -4.6390   -2.0770 h1        1 MOL      0.031084
    130 H60         5.1970   -4.4850   -2.2550 h1        1 MOL      0.031084
    131 H61         4.3490   -2.7590   -3.3010 ho        1 MOL      0.401262
    132 N12         6.8550   -3.4170   -0.2370 n         1 MOL     -0.328854
    133 C43         8.1150   -2.7400    0.1070 c3        1 MOL      0.075664
    134 C44         8.2460   -1.3290   -0.5410 c         1 MOL      0.475752
    135 O18         8.6240   -0.3960    0.1280 o         1 MOL     -0.510624
    136 C45         9.2830   -3.6020   -0.3830 c3        1 MOL     -0.217439
    137 H62         6.9090   -4.4040   -0.4690 hn        1 MOL      0.254127
    138 H63         8.1810   -2.6550    1.1850 h1        1 MOL      0.089986
    139 H64        10.2460   -3.3690    0.0550 hc        1 MOL      0.068999
    140 H65         9.0570   -4.6680   -0.3340 hc        1 MOL      0.068999
    141 H66         9.3800   -3.4520   -1.4610 hc        1 MOL      0.068999
    142 N13         7.6980   -1.1680   -1.7210 n         1 MOL     -0.336916
    143 C46         7.5450    0.1870   -2.2630 c3        1 MOL      0.071517
    144 C47         6.7830    1.1960   -1.3970 c         1 MOL      0.485754
    145 O19         7.0430    2.3590   -1.3710 o         1 MOL     -0.527436
    146 C48         6.8970   -0.0440   -3.6040 c3        1 MOL     -0.351848
    147 H67         7.3820   -2.0020   -2.1980 hn        1 MOL      0.228848
    148 H68         8.5020    0.6820   -2.3970 h1        1 MOL      0.078447
    149 H69         7.6470   -0.6130   -4.1610 hc        1 MOL      0.093733
    150 H70         5.9430   -0.5750   -3.5540 hc        1 MOL      0.093733
    151 H71         6.6050    0.8370   -4.1860 hc        1 MOL      0.093733
    152 N14         5.6570    0.7390   -0.8750 n         1 MOL     -0.140289
    153 C49         4.8130    1.5840   -0.0480 c3        1 MOL     -0.427227
    154 C50         5.5000    1.9600    1.2110 c         1 MOL      0.700767
    155 O20         5.6290    3.1140    1.5800 o         1 MOL     -0.543592
    156 C51         3.4860    0.9630    0.1910 c3        1 MOL      0.112762
    157 C52         2.6040    1.1670   -1.0230 c3        1 MOL      0.024938
    158 C53         1.1850    0.6160   -0.8090 c         1 MOL      0.698293
    159 O21         0.2740    1.4070   -0.4890 o         1 MOL     -0.775865
    160 O22         0.8610   -0.5690   -1.0330 o         1 MOL     -0.775865
    161 H72         5.3850   -0.2410   -0.9240 hn        1 MOL      0.223469
    162 H73         4.6190    2.4770   -0.6380 h1        1 MOL      0.135798
    163 H74         2.9430    1.4370    1.0090 hc        1 MOL      0.026164
    164 H75         3.5420   -0.0930    0.4290 hc        1 MOL      0.026164
    165 H76         2.9860    0.5680   -1.8530 hc        1 MOL     -0.054347
    166 H77         2.6960    2.2230   -1.2770 hc        1 MOL     -0.054347
    167 N15         5.9850    0.8710    1.8760 n         1 MOL     -0.313882
    168 C54         6.7080    1.1640    3.1280 c3        1 MOL     -0.302558
    169 H78         6.5870    0.3310    3.8190 h1        1 MOL      0.122207
    170 H79         7.7670    1.3070    2.9120 h1        1 MOL      0.122207
    171 H80         6.3030    2.0710    3.5780 h1        1 MOL      0.122207
    172 H81         6.0310   -0.0250    1.4230 hn        1 MOL      0.236243
    173 Ca1        -1.8150   -0.0170   -0.8130 Ca        1 MOL      1.754597
    174 O23        -1.2960   -1.1660   -3.1890 oh        1 MOL     -0.832916
    175 H82        -0.4860   -1.6880   -3.1810 ho        1 MOL      0.413427
    176 H83        -1.1180   -0.4680   -3.8220 ho        1 MOL      0.413427
@<TRIPOS>BOND
     1    1    2 1   
     2    1    4 1   
     3    1    5 1   
     4    1    6 1   
     5    2    3 2   
     6    2    7 1   
     7    7    8 1   
     8    7   15 1   
     9    8    9 1   
    10    8   11 1   
    11    8   16 1   
    12    9   10 2   
    13    9   19 1   
    14   11   12 1   
    15   11   17 1   
    16   11   18 1   
    17   12   13 1   
    18   12   14 1   
    19   19   20 1   
    20   19   28 1   
    21   20   21 1   
    22   20   23 1   
    23   20   29 1   
    24   21   22 2   
    25   21   41 1   
    26   23   24 1   
    27   23   30 1   
    28   23   31 1   
    29   24   25 1   
    30   24   32 1   
    31   24   33 1   
    32   25   26 1   
    33   25   34 1   
    34   25   35 1   
    35   26   27 1   
    36   26   36 1   
    37   26   37 1   
    38   27   38 1   
    39   27   39 1   
    40   27   40 1   
    41   41   42 1   
    42   41   49 1   
    43   42   43 1   
    44   42   45 1   
    45   42   50 1   
    46   43   44 2   
    47   43   53 1   
    48   45   46 1   
    49   45   51 1   
    50   45   52 1   
    51   46   47 1   
    52   46   48 1   
    53   53   54 1   
    54   53   57 1   
    55   54   55 1   
    56   54   58 1   
    57   54   59 1   
    58   55   56 2   
    59   55   60 1   
    60   60   61 1   
    61   60   68 1   
    62   61   62 1   
    63   61   64 1   
    64   61   69 1   
    65   62   63 2   
    66   62   74 1   
    67   64   65 1   
    68   64   70 1   
    69   64   71 1   
    70   65   66 1   
    71   65   67 2   
    72   66   72 1   
    73   66   73 1   
    74   74   75 1   
    75   74   78 1   
    76   75   76 1   
    77   75   79 1   
    78   75   80 1   
    79   76   77 2   
    80   76   81 1   
    81   81   82 1   
    82   81   93 1   
    83   82   83 1   
    84   82   85 1   
    85   82   94 1   
    86   83   84 2   
    87   83  102 1   
    88   85   86 1   
    89   85   95 1   
    90   85   96 1   
    91   86   87 ar  
    92   86   88 ar  
    93   87   89 ar  
    94   87   97 1   
    95   88   90 ar  
    96   88   98 1   
    97   89   91 ar  
    98   89   99 1   
    99   90   91 ar  
   100   90  100 1   
   101   91   92 1   
   102   92  101 1   
   103  102  103 1   
   104  102  110 1   
   105  103  104 1   
   106  103  106 1   
   107  103  111 1   
   108  104  105 2   
   109  104  121 1   
   110  106  107 1   
   111  106  108 1   
   112  106  112 1   
   113  107  109 1   
   114  107  113 1   
   115  107  114 1   
   116  108  115 1   
   117  108  116 1   
   118  108  117 1   
   119  109  118 1   
   120  109  119 1   
   121  109  120 1   
   122  121  122 1   
   123  121  127 1   
   124  122  123 1   
   125  122  125 1   
   126  122  128 1   
   127  123  124 2   
   128  123  132 1   
   129  125  126 1   
   130  125  129 1   
   131  125  130 1   
   132  126  131 1   
   133  132  133 1   
   134  132  137 1   
   135  133  134 1   
   136  133  136 1   
   137  133  138 1   
   138  134  135 2   
   139  134  142 1   
   140  136  139 1   
   141  136  140 1   
   142  136  141 1   
   143  142  143 1   
   144  142  147 1   
   145  143  144 1   
   146  143  146 1   
   147  143  148 1   
   148  144  145 2   
   149  144  152 1   
   150  146  149 1   
   151  146  150 1   
   152  146  151 1   
   153  152  153 1   
   154  152  161 1   
   155  153  154 1   
   156  153  156 1   
   157  153  162 1   
   158  154  155 2   
   159  154  167 1   
   160  156  157 1   
   161  156  163 1   
   162  156  164 1   
   163  157  158 1   
   164  157  165 1   
   165  157  166 1   
   166  158  159 1   
   167  158  160 1   
   168  167  168 1   
   169  167  172 1   
   170  168  169 1   
   171  168  170 1   
   172  168  171 1   
   173  174  175 1   
   174  174  176 1   
@<TRIPOS>SUBSTRUCTURE
     1 MOL         1 TEMP              0 ****  ****    0 ROOT
