@<TRIPOS>MOLECULE
MOL
  175   173     1     0     0
SMALL
resp


@<TRIPOS>ATOM
      1 C1         -1.1570    4.1920    5.6000 c3        1 MOL     -0.316805
      2 C2         -1.3120    3.6680    4.1200 c         1 MOL      0.789832
      3 O1         -0.3010    3.8220    3.4930 o         1 MOL     -0.594895
      4 H1         -1.6920    3.5260    6.2780 hc        1 MOL      0.061754
      5 H2         -0.1020    4.2120    5.8700 hc        1 MOL      0.061754
      6 H3         -1.5720    5.1970    5.6750 hc        1 MOL      0.061754
      7 N1         -2.4040    3.0750    3.7330 n         1 MOL     -0.636411
      8 C3         -2.7200    2.5940    2.4240 c3        1 MOL      0.051341
      9 C4         -3.0150    3.7520    1.4970 c         1 MOL      0.606684
     10 O2         -4.0120    4.4490    1.7790 o         1 MOL     -0.603402
     11 C5         -3.9480    1.6230    2.5830 c3        1 MOL     -0.073102
     12 C6         -4.2460    0.8160    1.3080 c         1 MOL      0.866732
     13 O3         -5.1640   -0.0360    1.4440 o         1 MOL     -0.800519
     14 O4         -3.6590    0.9600    0.2180 o         1 MOL     -0.800519
     15 H4         -3.1780    3.1220    4.3710 hn        1 MOL      0.320136
     16 H5         -1.8340    2.0750    2.0580 h1        1 MOL      0.038851
     17 H6         -4.8740    2.1250    2.8660 hc        1 MOL      0.021101
     18 H7         -3.7340    0.9220    3.3800 hc        1 MOL      0.021101
     19 N2         -2.3090    3.9420    0.4130 n         1 MOL     -0.505744
     20 C7         -2.4510    5.1820   -0.4390 c3        1 MOL      0.308585
     21 C8         -3.6570    5.0750   -1.3070 c         1 MOL      0.319627
     22 O5         -4.4040    6.0340   -1.5090 o         1 MOL     -0.539668
     23 C9         -1.1150    5.4420   -1.1700 c3        1 MOL     -0.374617
     24 H8         -1.5730    3.3060    0.1170 hn        1 MOL      0.306427
     25 H9         -2.6360    6.0570    0.1840 h1        1 MOL      0.020549
     26 H10        -1.1820    6.3790   -1.7250 hc        1 MOL      0.098651
     27 H11        -0.3070    5.6280   -0.4510 hc        1 MOL      0.098651
     28 H12        -0.9980    4.5920   -1.8340 hc        1 MOL      0.098651
     29 N3         -3.8910    3.8330   -1.7860 n         1 MOL     -0.041681
     30 C10        -4.8430    3.4480   -2.8130 c3        1 MOL     -0.029271
     31 C11        -6.1870    2.9330   -2.2330 c         1 MOL      0.473540
     32 O6         -7.2490    3.2920   -2.7220 o         1 MOL     -0.545847
     33 C12        -4.1810    2.3990   -3.7420 c3        1 MOL     -0.208751
     34 C13        -3.4040    1.3520   -3.0370 c         1 MOL      0.584329
     35 O7         -2.3220    1.6620   -2.5730 o         1 MOL     -0.637257
     36 O8         -3.8380    0.1900   -2.8420 o         1 MOL     -0.637257
     37 H13        -3.3440    3.0300   -1.4980 hn        1 MOL      0.089678
     38 H14        -5.0590    4.2780   -3.4950 h1        1 MOL      0.077128
     39 H15        -3.5240    2.9320   -4.4400 hc        1 MOL      0.062251
     40 H16        -4.9730    1.8930   -4.2970 hc        1 MOL      0.062251
     41 N4         -6.0630    2.3560   -1.0300 n         1 MOL     -0.150384
     42 C14        -7.2920    1.7530   -0.4650 c3        1 MOL     -0.207838
     43 C15        -7.5690    0.3020   -0.8510 c         1 MOL      0.545119
     44 O9         -8.7840   -0.0320   -0.8710 o         1 MOL     -0.600394
     45 H17        -5.1700    2.2930   -0.5750 hn        1 MOL      0.146399
     46 H18        -8.1890    2.2890   -0.7570 h1        1 MOL      0.116218
     47 H19        -7.1440    1.8650    0.6160 h1        1 MOL      0.116218
     48 N5         -6.5480   -0.5600   -1.1530 n         1 MOL     -0.166963
     49 C16        -6.6920   -1.9680   -1.4510 c3        1 MOL     -0.164333
     50 C17        -6.5650   -2.8910   -0.2410 c         1 MOL      0.556717
     51 O10        -6.2470   -4.0870   -0.4330 o         1 MOL     -0.574887
     52 C18        -5.7920   -2.1920   -2.7170 c3        1 MOL      0.126350
     53 C19        -4.4900   -2.8760   -2.4030 c         1 MOL      0.281464
     54 N6         -4.0950   -3.9520   -3.0000 n         1 MOL     -0.540242
     55 O11        -3.8000   -2.5640   -1.4210 o         1 MOL     -0.445026
     56 H20        -5.6570   -0.0750   -1.2180 hn        1 MOL      0.102663
     57 H21        -7.7350   -2.0870   -1.7610 h1        1 MOL      0.101313
     58 H22        -5.6250   -1.2900   -3.3020 hc        1 MOL      0.018953
     59 H23        -6.3470   -2.7710   -3.4530 hc        1 MOL      0.018953
     60 H24        -4.5490   -4.3100   -3.8270 hn        1 MOL      0.303691
     61 H25        -3.1510   -4.3080   -2.8870 hn        1 MOL      0.303691
     62 N7         -6.6650   -2.3620    0.9460 n         1 MOL     -0.372295
     63 C20        -6.5920   -3.0570    2.2270 c3        1 MOL     -0.086620
     64 C21        -5.2500   -3.7210    2.4490 c         1 MOL      0.452693
     65 O12        -5.1170   -4.5600    3.3340 o         1 MOL     -0.586470
     66 H26        -6.8120   -1.3710    1.0730 hn        1 MOL      0.319132
     67 H27        -7.4060   -3.7810    2.2090 h1        1 MOL      0.099398
     68 H28        -6.8650   -2.4170    3.0670 h1        1 MOL      0.099398
     69 N8         -4.2150   -3.3550    1.7180 n         1 MOL     -0.118402
     70 C22        -2.8410   -3.8700    1.9840 c3        1 MOL     -0.070587
     71 C23        -1.8620   -2.7910    1.7390 c         1 MOL      0.451394
     72 O13        -2.1240   -1.9760    0.8750 o         1 MOL     -0.602249
     73 C24        -2.4640   -5.0860    1.1210 c3        1 MOL      0.493960
     74 C25        -3.2690   -6.3170    1.3770 c3        1 MOL     -0.431867
     75 O14        -2.4170   -4.6570   -0.2350 oh        1 MOL     -0.648264
     76 H29        -4.3660   -2.5480    1.1190 hn        1 MOL      0.194157
     77 H30        -2.7370   -4.1170    3.0420 h1        1 MOL      0.062401
     78 H31        -1.4710   -5.2170    1.5660 h1        1 MOL     -0.027769
     79 H32        -3.2730   -4.2670   -0.4090 ho        1 MOL      0.386374
     80 H33        -2.9660   -7.1540    0.7490 hc        1 MOL      0.107034
     81 H34        -3.0480   -6.6240    2.3990 hc        1 MOL      0.107034
     82 H35        -4.3350   -6.1940    1.2050 hc        1 MOL      0.107034
     83 N9         -0.6330   -2.8100    2.3250 n         1 MOL     -0.315607
     84 C26         0.5360   -1.9710    1.9150 c3        1 MOL     -0.053833
     85 C27         1.6160   -2.7940    1.0940 c         1 MOL      0.413093
     86 O15         1.9330   -3.9340    1.3780 o         1 MOL     -0.601753
     87 C28         1.2000   -1.1700    3.0510 c3        1 MOL      0.577185
     88 C29         2.0220   -2.0000    3.9360 c3        1 MOL     -0.016302
     89 C30         0.1130   -0.3680    3.8810 c3        1 MOL     -0.238289
     90 C31         2.7700   -1.3060    5.0660 c3        1 MOL     -0.245441
     91 H36        -0.5130   -3.4210    3.1250 hn        1 MOL      0.244011
     92 H37         0.1540   -1.2370    1.1980 h1        1 MOL      0.007122
     93 H38         1.8160   -0.3960    2.5930 hc        1 MOL     -0.337445
     94 H39         2.8430   -2.4720    3.3790 hc        1 MOL     -0.005153
     95 H40         1.3210   -2.7490    4.3030 hc        1 MOL     -0.005153
     96 H41        -0.5540   -1.0830    4.3710 hc        1 MOL      0.035154
     97 H42         0.4760    0.3330    4.6310 hc        1 MOL      0.035154
     98 H43        -0.4130    0.2320    3.1370 hc        1 MOL      0.035154
     99 H44         3.5690   -1.9730    5.4050 hc        1 MOL      0.051062
    100 H45         3.3100   -0.4460    4.6820 hc        1 MOL      0.051062
    101 H46         2.1790   -0.9810    5.9290 hc        1 MOL      0.051062
    102 N10         2.1080   -2.1300    0.0960 n         1 MOL     -0.114818
    103 C32         3.1110   -2.3920   -0.9620 c3        1 MOL      0.076402
    104 C33         4.4260   -1.6140   -0.5600 c         1 MOL      0.535072
    105 O16         4.4060   -0.8090    0.4060 o         1 MOL     -0.543952
    106 C34         2.5960   -1.8100   -2.2660 c3        1 MOL     -0.050405
    107 C35         3.3400   -2.2940   -3.4950 c         1 MOL      0.614175
    108 O17         2.7670   -2.0520   -4.6110 o         1 MOL     -0.694354
    109 O18         4.3620   -2.9810   -3.3760 o         1 MOL     -0.694354
    110 H47         1.7740   -1.1740    0.0360 hn        1 MOL      0.072397
    111 H48         3.3840   -3.4410   -1.0570 h1        1 MOL      0.062867
    112 H49         2.6950   -0.7200   -2.2200 hc        1 MOL      0.019758
    113 H50         1.5320   -2.0080   -2.3870 hc        1 MOL      0.019758
    114 N11         5.5210   -1.9080   -1.1990 n         1 MOL     -0.717526
    115 C36         6.8720   -1.3500   -0.8100 c3        1 MOL      0.499852
    116 C37         6.9550    0.1660   -0.6160 c         1 MOL      0.296197
    117 O19         7.3880    0.6060    0.4180 o         1 MOL     -0.525444
    118 C38         8.0330   -1.9890   -1.5560 c3        1 MOL     -0.297136
    119 C39         9.4010   -1.7560   -0.9800 ca        1 MOL      0.011780
    120 C40         9.6790   -2.0860    0.3490 ca        1 MOL     -0.039322
    121 C41        10.3770   -1.0350   -1.6660 ca        1 MOL     -0.039322
    122 C42        10.9340   -1.7930    0.9510 ca        1 MOL     -0.251879
    123 C43        11.6840   -0.7870   -1.1050 ca        1 MOL     -0.251879
    124 C44        11.9210   -1.1220    0.2500 ca        1 MOL      0.025777
    125 H51         5.4330   -2.5090   -2.0080 hn        1 MOL      0.344885
    126 H52         7.0120   -1.6050    0.2420 h1        1 MOL      0.037471
    127 H53         8.1180   -1.5060   -2.5270 hc        1 MOL      0.091322
    128 H54         7.8320   -3.0490   -1.7320 hc        1 MOL      0.091322
    129 H55         8.9500   -2.5430    1.0030 ha        1 MOL      0.090603
    130 H56        10.2180   -0.8860   -2.7240 ha        1 MOL      0.090603
    131 H57        10.9940   -2.0360    2.0020 ha        1 MOL      0.135732
    132 H58        12.4410   -0.2410   -1.6520 ha        1 MOL      0.135732
    133 H59        12.8720   -0.9390    0.7260 ha        1 MOL      0.071378
    134 N12         6.4230    1.0400   -1.5080 n         1 MOL      0.086925
    135 C45         6.6250    2.4350   -1.0980 c3        1 MOL     -0.004442
    136 C46         5.6560    3.0490   -0.0640 c         1 MOL      0.386614
    137 O20         5.9860    4.1030    0.3720 o         1 MOL     -0.508867
    138 C47         6.4320    3.2410   -2.4000 c3        1 MOL     -0.182874
    139 C48         6.8180    2.2140   -3.4900 c3        1 MOL     -0.059900
    140 C49         6.2730    0.8560   -2.9370 c3        1 MOL     -0.043408
    141 H60         7.6660    2.6140   -0.8350 h1        1 MOL      0.067451
    142 H61         5.3710    3.3860   -2.5800 hc        1 MOL      0.089524
    143 H62         6.9590    4.1880   -2.4100 hc        1 MOL      0.089524
    144 H63         6.3160    2.5200   -4.4020 hc        1 MOL      0.017554
    145 H64         7.9020    2.1190   -3.5830 hc        1 MOL      0.017554
    146 H65         5.2210    0.7140   -3.1740 h1        1 MOL      0.044778
    147 H66         6.9470    0.0470   -3.2460 h1        1 MOL      0.044778
    148 N13         4.5460    2.3930    0.1720 n         1 MOL     -0.220296
    149 C50         3.5740    2.7700    1.1660 c3        1 MOL      0.003168
    150 C51         4.1320    2.2450    2.5190 c         1 MOL      0.317256
    151 O21         4.2600    3.0140    3.4720 o         1 MOL     -0.565203
    152 C52         2.2870    2.0900    0.8820 c3        1 MOL     -0.124617
    153 C53         1.4880    2.3750   -0.4170 c3        1 MOL     -0.188004
    154 C54         0.3060    1.3680   -0.4220 c         1 MOL      0.697537
    155 O22        -0.7850    1.8100   -0.1210 o         1 MOL     -0.649408
    156 O23         0.5410    0.2100   -0.8680 o         1 MOL     -0.649408
    157 H67         4.3820    1.4600   -0.1860 hn        1 MOL      0.118208
    158 H68         3.4220    3.8530    1.2130 h1        1 MOL      0.093523
    159 H69         1.5610    2.2630    1.6690 hc        1 MOL      0.175281
    160 H70         2.4830    1.0220    0.7550 hc        1 MOL      0.175281
    161 H71         2.1760    2.2830   -1.2540 hc        1 MOL      0.035166
    162 H72         1.0480    3.3670   -0.4140 hc        1 MOL      0.035166
    163 N14         4.7250    1.0800    2.5730 n         1 MOL      0.182068
    164 C55         5.7110    0.6300    3.5960 c3        1 MOL     -0.004062
    165 H73         5.1810    0.1860    4.4390 h1        1 MOL      0.016500
    166 H74         6.3790   -0.1120    3.1560 h1        1 MOL      0.016500
    167 H75         6.2930    1.4840    3.9420 h1        1 MOL      0.016500
    168 H76         4.6980    0.5650    1.7010 hn        1 MOL      0.025070
    169 Ca1        -1.9910   -0.4630   -1.1900 Ca        1 MOL      1.715180
    170 O24        -0.8440   -0.8710   -3.6110 oh        1 MOL     -0.815011
    171 H77        -0.0920   -0.4410   -4.0060 ho        1 MOL      0.400213
    172 H78        -1.1070   -1.5400   -4.2430 ho        1 MOL      0.400213
    173 O25        -0.7090   -2.8510   -1.3360 oh        1 MOL     -0.815011
    174 H79        -0.0970   -3.3750   -1.8510 ho        1 MOL      0.400213
    175 H80        -1.2220   -3.5000   -0.8580 ho        1 MOL      0.400213
@<TRIPOS>BOND
     1    1    2 1   
     2    1    4 1   
     3    1    5 1   
     4    1    6 1   
     5    2    3 2   
     6    2    7 1   
     7    7    8 1   
     8    7   15 1   
     9    8    9 1   
    10    8   11 1   
    11    8   16 1   
    12    9   10 2   
    13    9   19 1   
    14   11   12 1   
    15   11   17 1   
    16   11   18 1   
    17   12   13 1   
    18   12   14 1   
    19   19   20 1   
    20   19   24 1   
    21   20   21 1   
    22   20   23 1   
    23   20   25 1   
    24   21   22 2   
    25   21   29 1   
    26   23   26 1   
    27   23   27 1   
    28   23   28 1   
    29   29   30 1   
    30   29   37 1   
    31   30   31 1   
    32   30   33 1   
    33   30   38 1   
    34   31   32 2   
    35   31   41 1   
    36   33   34 1   
    37   33   39 1   
    38   33   40 1   
    39   34   35 1   
    40   34   36 1   
    41   41   42 1   
    42   41   45 1   
    43   42   43 1   
    44   42   46 1   
    45   42   47 1   
    46   43   44 2   
    47   43   48 1   
    48   48   49 1   
    49   48   56 1   
    50   49   50 1   
    51   49   52 1   
    52   49   57 1   
    53   50   51 2   
    54   50   62 1   
    55   52   53 1   
    56   52   58 1   
    57   52   59 1   
    58   53   54 1   
    59   53   55 2   
    60   54   60 1   
    61   54   61 1   
    62   62   63 1   
    63   62   66 1   
    64   63   64 1   
    65   63   67 1   
    66   63   68 1   
    67   64   65 2   
    68   64   69 1   
    69   69   70 1   
    70   69   76 1   
    71   70   71 1   
    72   70   73 1   
    73   70   77 1   
    74   71   72 2   
    75   71   83 1   
    76   73   74 1   
    77   73   75 1   
    78   73   78 1   
    79   74   80 1   
    80   74   81 1   
    81   74   82 1   
    82   75   79 1   
    83   83   84 1   
    84   83   91 1   
    85   84   85 1   
    86   84   87 1   
    87   84   92 1   
    88   85   86 2   
    89   85  102 1   
    90   87   88 1   
    91   87   89 1   
    92   87   93 1   
    93   88   90 1   
    94   88   94 1   
    95   88   95 1   
    96   89   96 1   
    97   89   97 1   
    98   89   98 1   
    99   90   99 1   
   100   90  100 1   
   101   90  101 1   
   102  102  103 1   
   103  102  110 1   
   104  103  104 1   
   105  103  106 1   
   106  103  111 1   
   107  104  105 2   
   108  104  114 1   
   109  106  107 1   
   110  106  112 1   
   111  106  113 1   
   112  107  108 1   
   113  107  109 1   
   114  114  115 1   
   115  114  125 1   
   116  115  116 1   
   117  115  118 1   
   118  115  126 1   
   119  116  117 2   
   120  116  134 1   
   121  118  119 1   
   122  118  127 1   
   123  118  128 1   
   124  119  120 ar  
   125  119  121 ar  
   126  120  122 ar  
   127  120  129 1   
   128  121  123 ar  
   129  121  130 1   
   130  122  124 ar  
   131  122  131 1   
   132  123  124 ar  
   133  123  132 1   
   134  124  133 1   
   135  134  135 1   
   136  134  140 1   
   137  135  136 1   
   138  135  138 1   
   139  135  141 1   
   140  136  137 2   
   141  136  148 1   
   142  138  139 1   
   143  138  142 1   
   144  138  143 1   
   145  139  140 1   
   146  139  144 1   
   147  139  145 1   
   148  140  146 1   
   149  140  147 1   
   150  148  149 1   
   151  148  157 1   
   152  149  150 1   
   153  149  152 1   
   154  149  158 1   
   155  150  151 2   
   156  150  163 1   
   157  152  153 1   
   158  152  159 1   
   159  152  160 1   
   160  153  154 1   
   161  153  161 1   
   162  153  162 1   
   163  154  155 1   
   164  154  156 1   
   165  163  164 1   
   166  163  168 1   
   167  164  165 1   
   168  164  166 1   
   169  164  167 1   
   170  170  171 1   
   171  170  172 1   
   172  173  174 1   
   173  173  175 1   
@<TRIPOS>SUBSTRUCTURE
     1 MOL         1 TEMP              0 ****  ****    0 ROOT
