@<TRIPOS>MOLECULE
MOL
  189   185     1     0     0
SMALL
resp


@<TRIPOS>ATOM
      1 C1          0.2130    0.2520    6.3700 c3        1 MOL     -0.202987
      2 C2         -0.0800    0.2030    4.7740 c         1 MOL      0.572872
      3 O1          0.7660    0.7280    3.9930 o         1 MOL     -0.541756
      4 H1          1.2770    0.0950    6.5480 hc        1 MOL      0.061073
      5 H2         -0.0810    1.2250    6.7650 hc        1 MOL      0.061073
      6 H3         -0.3570   -0.5310    6.8690 hc        1 MOL      0.061073
      7 N1         -1.3000   -0.1680    4.3760 n         1 MOL     -0.478125
      8 C3         -1.8800    0.3720    3.1690 c3        1 MOL      0.113577
      9 C4         -2.4170    1.7960    3.3440 c         1 MOL      0.600975
     10 O2         -3.2050    1.9740    4.2740 o         1 MOL     -0.605170
     11 C5         -2.9440   -0.6120    2.6320 c3        1 MOL     -0.303876
     12 C6         -3.7250   -0.0700    1.3580 c         1 MOL      0.652897
     13 O3         -4.8650   -0.4980    1.1700 o         1 MOL     -0.582558
     14 O4         -3.1660    0.7670    0.5550 o         1 MOL     -0.582558
     15 H4         -1.9040   -0.6160    5.0470 hn        1 MOL      0.317943
     16 H5         -1.0590    0.4940    2.4620 h1        1 MOL     -0.063611
     17 H6         -3.6500   -0.7790    3.4460 hc        1 MOL      0.067987
     18 H7         -2.3440   -1.4960    2.4040 hc        1 MOL      0.067987
     19 N2         -1.9020    2.7160    2.5910 n         1 MOL     -0.257590
     20 C7         -2.3130    4.1150    2.6450 c3        1 MOL     -0.064343
     21 C8         -3.1780    4.5890    1.4720 c         1 MOL      0.522227
     22 O5         -3.3540    5.7840    1.2260 o         1 MOL     -0.547999
     23 C9         -1.0720    4.9830    3.0130 c3        1 MOL      0.018821
     24 C10         0.2120    4.6890    2.2030 c3        1 MOL     -0.148068
     25 C11        -0.0740    5.0010    0.7020 c3        1 MOL     -0.048913
     26 C12         1.0950    4.5370   -0.1600 c3        1 MOL      0.250386
     27 N3          0.6760    4.5220   -1.5910 n4        1 MOL     -0.505676
     28 H8         -1.4620    2.2920    1.7970 hn        1 MOL      0.238605
     29 H9         -3.0280    4.2990    3.4510 h1        1 MOL      0.098365
     30 H10        -0.8190    4.7820    4.0490 hc        1 MOL      0.019895
     31 H11        -1.3220    6.0370    2.8930 hc        1 MOL      0.019895
     32 H12         0.4590    3.6290    2.3100 hc        1 MOL      0.072064
     33 H13         0.9730    5.2840    2.7010 hc        1 MOL      0.072064
     34 H14        -0.1690    6.0850    0.6280 hc        1 MOL      0.056044
     35 H15        -0.9220    4.5100    0.2200 hc        1 MOL      0.056044
     36 H16         1.3510    3.5000    0.0710 hx        1 MOL     -0.022926
     37 H17         1.9820    5.1310    0.0610 hx        1 MOL     -0.022926
     38 H18         0.5940    5.4420   -1.9810 hn        1 MOL      0.318429
     39 H19         1.3480    3.9200   -2.0540 hn        1 MOL      0.318429
     40 H20        -0.1920    4.0190   -1.7080 hn        1 MOL      0.318429
     41 N4         -3.8450    3.6870    0.7070 n         1 MOL     -0.312543
     42 C13        -4.7230    4.0490   -0.4970 c3        1 MOL     -0.264935
     43 C14        -6.1450    3.4990   -0.3920 c         1 MOL      0.525936
     44 O6         -6.9710    3.6800   -1.3270 o         1 MOL     -0.525071
     45 C15        -4.1020    3.5390   -1.8050 c3        1 MOL      0.115394
     46 C16        -2.6070    3.8040   -1.9240 c         1 MOL      0.551975
     47 O7         -1.7760    2.8040   -1.7400 o         1 MOL     -0.627885
     48 O8         -2.3580    4.9830   -2.3160 o         1 MOL     -0.627885
     49 H21        -3.7100    2.7220    0.9710 hn        1 MOL      0.165644
     50 H22        -4.7840    5.1240   -0.5820 h1        1 MOL      0.183078
     51 H23        -4.6350    3.8080   -2.7140 hc        1 MOL      0.002203
     52 H24        -4.3510    2.4800   -1.8010 hc        1 MOL      0.002203
     53 N5         -6.5560    2.7780    0.6580 n         1 MOL     -0.322674
     54 C17        -7.7990    2.0600    0.6190 c3        1 MOL     -0.194080
     55 C18        -7.9690    1.0070   -0.4990 c         1 MOL      0.532692
     56 O9         -9.0990    0.6600   -0.7050 o         1 MOL     -0.571182
     57 H25        -5.9360    2.5740    1.4340 hn        1 MOL      0.255097
     58 H26        -8.6620    2.7130    0.7150 h1        1 MOL      0.114595
     59 H27        -7.7920    1.3580    1.4500 h1        1 MOL      0.114595
     60 N6         -6.9440    0.4300   -1.0950 n         1 MOL     -0.204208
     61 C19        -7.0520   -0.6800   -2.1040 c3        1 MOL     -0.149927
     62 C20        -7.1640   -2.0910   -1.4850 c         1 MOL      0.430539
     63 O10        -7.5650   -3.0800   -2.1400 o         1 MOL     -0.543235
     64 C21        -5.9390   -0.6160   -3.1460 c3        1 MOL     -0.124313
     65 C22        -4.4970   -0.4340   -2.7310 c         1 MOL      0.576662
     66 O11        -4.0500   -1.1850   -1.8640 o         1 MOL     -0.684301
     67 O12        -3.8280    0.4210   -3.3340 o         1 MOL     -0.684301
     68 H28        -6.0430    0.5600   -0.6670 hn        1 MOL      0.254009
     69 H29        -8.0000   -0.4860   -2.5990 h1        1 MOL      0.145596
     70 H30        -6.2470    0.2040   -3.7970 hc        1 MOL      0.070147
     71 H31        -6.0860   -1.5220   -3.7470 hc        1 MOL      0.070147
     72 N7         -6.7120   -2.2240   -0.2550 n         1 MOL     -0.200369
     73 C23        -6.6170   -3.4420    0.5350 c3        1 MOL      0.057579
     74 C24        -5.3050   -4.2760    0.3200 c         1 MOL      0.402797
     75 O13        -5.3250   -5.4560    0.5230 o         1 MOL     -0.522163
     76 H32        -6.2700   -1.4030    0.1350 hn        1 MOL      0.143978
     77 H33        -7.4810   -4.0940    0.4090 h1        1 MOL      0.047997
     78 H34        -6.7440   -3.1280    1.5680 h1        1 MOL      0.047997
     79 N8         -4.1760   -3.6650   -0.0770 n         1 MOL     -0.058161
     80 C25        -2.9530   -4.3570   -0.4950 c3        1 MOL     -0.182084
     81 C26        -1.6750   -3.5070   -0.2550 c         1 MOL      0.380697
     82 O14        -1.7470   -2.2580   -0.2460 o         1 MOL     -0.364926
     83 C27        -2.8690   -4.8160   -2.0090 c3        1 MOL      0.458626
     84 C28        -3.6430   -6.0800   -2.2100 c3        1 MOL     -0.563094
     85 O15        -3.4100   -3.7750   -2.8670 oh        1 MOL     -0.591500
     86 H35        -4.2450   -2.6660    0.0050 hn        1 MOL      0.088164
     87 H36        -2.8370   -5.2280    0.1370 h1        1 MOL      0.109424
     88 H37        -1.8570   -4.8940   -2.4130 h1        1 MOL      0.006190
     89 H38        -3.6770   -3.0950   -2.2460 ho        1 MOL      0.392578
     90 H39        -3.4330   -6.8090   -1.4200 hc        1 MOL      0.148517
     91 H40        -4.7220   -5.9640   -2.1640 hc        1 MOL      0.148517
     92 H41        -3.3820   -6.5030   -3.1810 hc        1 MOL      0.148517
     93 N9         -0.5060   -4.1430   -0.0450 n         1 MOL     -0.470590
     94 C29         0.7390   -3.5300    0.3740 c3        1 MOL      0.220478
     95 C30         1.8840   -3.6020   -0.6330 c         1 MOL      0.357682
     96 O16         2.3170   -4.7110   -0.8420 o         1 MOL     -0.507830
     97 C31         1.1230   -4.0780    1.7590 c3        1 MOL      0.015636
     98 C32         0.3720   -3.2690    2.8300 c3        1 MOL      0.206239
     99 C33         2.5840   -4.1690    2.2070 c3        1 MOL     -0.296370
    100 C34         0.4570   -3.7230    4.2860 c3        1 MOL     -0.414369
    101 H42        -0.4060   -5.1480   -0.0430 hn        1 MOL      0.279212
    102 H43         0.5730   -2.4600    0.5090 h1        1 MOL     -0.132022
    103 H44         0.7130   -5.0870    1.8960 hc        1 MOL      0.022909
    104 H45        -0.6700   -3.2830    2.5300 hc        1 MOL      0.013129
    105 H46         0.8390   -2.2890    2.7500 hc        1 MOL      0.013129
    106 H47         3.2180   -4.7690    1.5510 hc        1 MOL      0.074724
    107 H48         2.9630   -3.1570    2.3570 hc        1 MOL      0.074724
    108 H49         2.6130   -4.6630    3.1810 hc        1 MOL      0.074724
    109 H50        -0.4600   -3.4120    4.7870 hc        1 MOL      0.093399
    110 H51         0.6210   -4.8080    4.2880 hc        1 MOL      0.093399
    111 H52         1.2950   -3.2020    4.7470 hc        1 MOL      0.093399
    112 N10         2.4650   -2.4300   -1.0740 n         1 MOL     -0.109535
    113 C35         3.6610   -2.2440   -1.9860 c3        1 MOL     -0.068771
    114 C36         4.9450   -2.1070   -1.1510 c         1 MOL      0.366263
    115 O17         4.8130   -2.0420    0.0700 o         1 MOL     -0.268540
    116 C37         3.4590   -0.9980   -2.8610 c3        1 MOL      0.265548
    117 C38         2.2650   -1.2570   -3.8100 c3        1 MOL     -0.459297
    118 O18         3.0410    0.1530   -2.1620 oh        1 MOL     -0.577474
    119 H53         1.9890   -1.5520   -0.8790 hn        1 MOL      0.238520
    120 H54         3.8870   -3.0960   -2.6340 h1        1 MOL      0.077534
    121 H55         4.3360   -0.7200   -3.4320 h1        1 MOL      0.025556
    122 H56         2.1050    0.0770   -1.9990 ho        1 MOL      0.312863
    123 H57         2.1270   -0.3130   -4.3440 hc        1 MOL      0.123240
    124 H58         2.5510   -2.0410   -4.5140 hc        1 MOL      0.123240
    125 H59         1.3760   -1.6750   -3.3380 hc        1 MOL      0.123240
    126 N11         6.2050   -2.1160   -1.7170 n         1 MOL     -0.338750
    127 C39         7.3550   -2.0010   -0.7920 c3        1 MOL     -0.268528
    128 C40         7.3780   -0.7530    0.0480 c         1 MOL      0.540877
    129 O19         7.5640   -0.9470    1.2970 o         1 MOL     -0.525563
    130 C41         8.6290   -2.1200   -1.6450 c3        1 MOL      0.388964
    131 C42         8.9980   -3.5240   -2.2250 c3        1 MOL     -0.477469
    132 O20         8.6460   -1.0740   -2.6020 oh        1 MOL     -0.687052
    133 H60         6.3630   -2.1880   -2.7060 hn        1 MOL      0.283486
    134 H61         7.2420   -2.8220   -0.0920 h1        1 MOL      0.172358
    135 H62         9.4420   -1.9200   -0.9500 h1        1 MOL      0.028295
    136 H63         9.4130   -1.3270   -3.1130 ho        1 MOL      0.419495
    137 H64        10.0550   -3.7170   -2.0450 hc        1 MOL      0.136299
    138 H65         8.5060   -4.3580   -1.7290 hc        1 MOL      0.136299
    139 H66         8.7260   -3.5580   -3.2790 hc        1 MOL      0.136299
    140 N12         6.9550    0.3680   -0.4510 n         1 MOL     -0.388473
    141 C43         6.8300    1.6650    0.3350 c3        1 MOL     -0.083127
    142 C44         5.8880    1.5760    1.5590 c         1 MOL      0.445129
    143 O21         5.9690    2.3490    2.4800 o         1 MOL     -0.508141
    144 C45         6.2710    2.7090   -0.6250 c3        1 MOL      0.021409
    145 C46         7.0270    2.9870   -1.9070 c3        1 MOL      0.013993
    146 C47         7.0070    4.4600   -2.4130 c3        1 MOL     -0.039383
    147 C48         7.6460    4.4080   -3.7800 c3        1 MOL     -0.011228
    148 N13         7.8910    5.7010   -4.3070 n4        1 MOL     -0.149848
    149 H67         6.6270    0.3830   -1.4110 hn        1 MOL      0.317003
    150 H68         7.8070    2.0070    0.6580 h1        1 MOL      0.121898
    151 H69         6.1640    3.6400   -0.0750 hc        1 MOL      0.005105
    152 H70         5.2300    2.4430   -0.8430 hc        1 MOL      0.005105
    153 H71         6.7440    2.1690   -2.5830 hc        1 MOL      0.016728
    154 H72         8.0700    2.7690   -1.7030 hc        1 MOL      0.016728
    155 H73         7.5790    5.1610   -1.7940 hc        1 MOL      0.048251
    156 H74         5.9530    4.6930   -2.5660 hc        1 MOL      0.048251
    157 H75         7.0050    3.8040   -4.4300 hx        1 MOL      0.083003
    158 H76         8.6300    3.9470   -3.6930 hx        1 MOL      0.083003
    159 H77         8.4840    6.3040   -3.7580 hn        1 MOL      0.278464
    160 H78         8.2910    5.7290   -5.2320 hn        1 MOL      0.278464
    161 H79         7.0480    6.2600   -4.3220 hn        1 MOL      0.278464
    162 N14         4.9940    0.5970    1.4630 n         1 MOL     -0.092474
    163 C49         3.9920    0.2150    2.4980 c3        1 MOL     -0.116857
    164 C50         4.5230   -0.8880    3.4620 c         1 MOL      0.474118
    165 O22         4.4670   -0.9230    4.6730 o         1 MOL     -0.542321
    166 C51         2.7210   -0.2020    1.7570 c3        1 MOL      0.094131
    167 C52         2.1540    1.0420    0.9820 c3        1 MOL     -0.092704
    168 C53         0.8490    0.7760    0.2710 c         1 MOL      1.135200
    169 O23         0.8470   -0.0220   -0.6810 o         1 MOL     -0.920791
    170 O24        -0.1840    1.4500    0.3560 o         1 MOL     -0.920791
    171 H80         5.1500   -0.0820    0.7300 hn        1 MOL      0.071706
    172 H81         3.7110    1.0830    3.0870 h1        1 MOL      0.100304
    173 H82         1.9740   -0.4730    2.5110 hc        1 MOL      0.001420
    174 H83         3.0020   -1.0700    1.1680 hc        1 MOL      0.001420
    175 H84         2.8790    1.4830    0.2870 hc        1 MOL     -0.015984
    176 H85         2.0160    1.8210    1.7340 hc        1 MOL     -0.015984
    177 N15         5.2950   -1.8130    2.8920 n         1 MOL     -0.022748
    178 C54         5.9830   -2.9000    3.6340 c3        1 MOL     -0.296688
    179 H86         7.0560   -2.8380    3.4540 h1        1 MOL      0.108249
    180 H87         5.7890   -2.7920    4.7010 h1        1 MOL      0.108249
    181 H88         5.6130   -3.8660    3.2920 h1        1 MOL      0.108249
    182 H89         5.2400   -1.8680    1.8870 hn        1 MOL      0.080110
    183 Ca1        -1.6780    0.2010   -1.5330 Ca        1 MOL      1.634145
    184 O25        -0.3620    0.8700   -3.7220 oh        1 MOL     -0.763114
    185 H90         0.5910    0.7740   -3.6690 ho        1 MOL      0.371288
    186 H91        -0.4920    1.7840   -3.9690 ho        1 MOL      0.371288
    187 O26        -1.1430   -1.9550   -3.1510 oh        1 MOL     -0.763114
    188 H92        -1.8810   -2.5310   -3.3510 ho        1 MOL      0.371288
    189 H93        -0.9560   -1.5060   -3.9830 ho        1 MOL      0.371288
@<TRIPOS>BOND
     1    1    2 1   
     2    1    4 1   
     3    1    5 1   
     4    1    6 1   
     5    2    3 2   
     6    2    7 1   
     7    7    8 1   
     8    7   15 1   
     9    8    9 1   
    10    8   11 1   
    11    8   16 1   
    12    9   10 2   
    13    9   19 1   
    14   11   12 1   
    15   11   17 1   
    16   11   18 1   
    17   12   13 1   
    18   12   14 1   
    19   19   20 1   
    20   19   28 1   
    21   20   21 1   
    22   20   23 1   
    23   20   29 1   
    24   21   22 2   
    25   21   41 1   
    26   23   24 1   
    27   23   30 1   
    28   23   31 1   
    29   24   25 1   
    30   24   32 1   
    31   24   33 1   
    32   25   26 1   
    33   25   34 1   
    34   25   35 1   
    35   26   27 1   
    36   26   36 1   
    37   26   37 1   
    38   27   38 1   
    39   27   39 1   
    40   27   40 1   
    41   41   42 1   
    42   41   49 1   
    43   42   43 1   
    44   42   45 1   
    45   42   50 1   
    46   43   44 2   
    47   43   53 1   
    48   45   46 1   
    49   45   51 1   
    50   45   52 1   
    51   46   47 1   
    52   46   48 1   
    53   53   54 1   
    54   53   57 1   
    55   54   55 1   
    56   54   58 1   
    57   54   59 1   
    58   55   56 2   
    59   55   60 1   
    60   60   61 1   
    61   60   68 1   
    62   61   62 1   
    63   61   64 1   
    64   61   69 1   
    65   62   63 2   
    66   62   72 1   
    67   64   65 1   
    68   64   70 1   
    69   64   71 1   
    70   65   66 1   
    71   65   67 1   
    72   72   73 1   
    73   72   76 1   
    74   73   74 1   
    75   73   77 1   
    76   73   78 1   
    77   74   75 2   
    78   74   79 1   
    79   79   80 1   
    80   79   86 1   
    81   80   81 1   
    82   80   83 1   
    83   80   87 1   
    84   81   82 2   
    85   81   93 1   
    86   83   84 1   
    87   83   85 1   
    88   83   88 1   
    89   84   90 1   
    90   84   91 1   
    91   84   92 1   
    92   85   89 1   
    93   93   94 1   
    94   93  101 1   
    95   94   95 1   
    96   94   97 1   
    97   94  102 1   
    98   95   96 2   
    99   95  112 1   
   100   97   98 1   
   101   97   99 1   
   102   97  103 1   
   103   98  100 1   
   104   98  104 1   
   105   98  105 1   
   106   99  106 1   
   107   99  107 1   
   108   99  108 1   
   109  100  109 1   
   110  100  110 1   
   111  100  111 1   
   112  112  113 1   
   113  112  119 1   
   114  113  114 1   
   115  113  116 1   
   116  113  120 1   
   117  114  115 2   
   118  114  126 1   
   119  116  117 1   
   120  116  118 1   
   121  116  121 1   
   122  117  123 1   
   123  117  124 1   
   124  117  125 1   
   125  118  122 1   
   126  126  127 1   
   127  126  133 1   
   128  127  128 1   
   129  127  130 1   
   130  127  134 1   
   131  128  129 2   
   132  128  140 1   
   133  130  131 1   
   134  130  132 1   
   135  130  135 1   
   136  131  137 1   
   137  131  138 1   
   138  131  139 1   
   139  132  136 1   
   140  140  141 1   
   141  140  149 1   
   142  141  142 1   
   143  141  144 1   
   144  141  150 1   
   145  142  143 2   
   146  142  162 1   
   147  144  145 1   
   148  144  151 1   
   149  144  152 1   
   150  145  146 1   
   151  145  153 1   
   152  145  154 1   
   153  146  147 1   
   154  146  155 1   
   155  146  156 1   
   156  147  148 1   
   157  147  157 1   
   158  147  158 1   
   159  148  159 1   
   160  148  160 1   
   161  148  161 1   
   162  162  163 1   
   163  162  171 1   
   164  163  164 1   
   165  163  166 1   
   166  163  172 1   
   167  164  165 2   
   168  164  177 1   
   169  166  167 1   
   170  166  173 1   
   171  166  174 1   
   172  167  168 1   
   173  167  175 1   
   174  167  176 1   
   175  168  169 1   
   176  168  170 1   
   177  177  178 1   
   178  177  182 1   
   179  178  179 1   
   180  178  180 1   
   181  178  181 1   
   182  184  185 1   
   183  184  186 1   
   184  187  188 1   
   185  187  189 1   
@<TRIPOS>SUBSTRUCTURE
     1 MOL         1 TEMP              0 ****  ****    0 ROOT
