@<TRIPOS>MOLECULE
MOL
  186   183     1     0     0
SMALL
resp


@<TRIPOS>ATOM
      1 C1          0.8650   -2.3750    6.3840 c3        1 MOL     -0.319760
      2 C2          1.1720   -2.2020    4.8750 c         1 MOL      0.698941
      3 O1          0.1740   -2.3390    4.1270 o         1 MOL     -0.550704
      4 H1          1.7930   -2.3120    6.9540 hc        1 MOL      0.073193
      5 H2          0.1860   -1.5870    6.7100 hc        1 MOL      0.073193
      6 H3          0.4000   -3.3470    6.5520 hc        1 MOL      0.073193
      7 N1          2.4300   -1.9450    4.4330 n         1 MOL     -0.641070
      8 C3          2.8400   -1.9110    2.9900 c3        1 MOL      0.013445
      9 C4          3.2410   -3.2730    2.3770 c         1 MOL      0.661957
     10 O2          4.2600   -3.9260    2.7180 o         1 MOL     -0.598116
     11 C5          4.0630   -0.9430    2.9230 c3        1 MOL     -0.219859
     12 C6          4.8710   -0.7220    1.5590 c         1 MOL      0.788731
     13 O3          4.3260   -0.9720    0.4950 o         1 MOL     -0.696162
     14 O4          6.0920   -0.4150    1.6170 o         1 MOL     -0.696162
     15 H4          3.1700   -1.7870    5.1040 hn        1 MOL      0.356398
     16 H5          2.1010   -1.3680    2.4060 h1        1 MOL      0.040369
     17 H6          4.8340   -1.1800    3.6540 hc        1 MOL      0.035492
     18 H7          3.7850    0.0850    3.1760 hc        1 MOL      0.035492
     19 N2          2.3730   -3.7050    1.4650 n         1 MOL     -0.234485
     20 C7          2.4420   -5.0360    0.8620 c3        1 MOL      0.005721
     21 C8          3.3200   -5.0820   -0.4290 c         1 MOL      0.425524
     22 O5          4.0710   -6.1230   -0.5680 o         1 MOL     -0.582659
     23 C9          0.9860   -5.5450    0.6860 c3        1 MOL      0.041657
     24 C10         0.2310   -5.6400    2.0210 c3        1 MOL      0.050181
     25 C11         0.9450   -6.9000   -0.1280 c3        1 MOL     -0.279873
     26 C12         0.9350   -6.5310    3.0380 c3        1 MOL     -0.145848
     27 H8          1.7250   -3.0360    1.0550 hn        1 MOL      0.207528
     28 H9          3.0210   -5.7080    1.4910 h1        1 MOL      0.058451
     29 H10         0.4580   -4.7860    0.1090 hc        1 MOL      0.028787
     30 H11        -0.7240   -6.1210    1.8320 hc        1 MOL      0.015595
     31 H12         0.0040   -4.6720    2.4610 hc        1 MOL      0.015595
     32 H13         1.5570   -7.7280    0.2350 hc        1 MOL      0.070221
     33 H14        -0.0650   -7.3060   -0.0660 hc        1 MOL      0.070221
     34 H15         1.2720   -6.8010   -1.1600 hc        1 MOL      0.070221
     35 H16         1.0850   -7.5260    2.6140 hc        1 MOL      0.020706
     36 H17         1.8740   -6.0610    3.3350 hc        1 MOL      0.020706
     37 H18         0.3140   -6.7890    3.8910 hc        1 MOL      0.020706
     38 N3          3.3360   -4.0870   -1.3190 n         1 MOL     -0.221469
     39 C13         4.2350   -4.0310   -2.4810 c3        1 MOL      0.045140
     40 C14         5.6110   -3.2580   -2.3850 c         1 MOL      0.347263
     41 O6          6.3500   -3.3060   -3.3310 o         1 MOL     -0.514383
     42 C15         3.4920   -3.6770   -3.7780 c3        1 MOL     -0.414585
     43 C16         2.7230   -2.2990   -3.6560 c         1 MOL      0.860646
     44 O7          3.1120   -1.5390   -2.7830 o         1 MOL     -0.721270
     45 O8          1.7630   -2.0430   -4.4400 o         1 MOL     -0.721270
     46 H19         2.6820   -3.3230   -1.2750 hn        1 MOL      0.175120
     47 H20         4.5770   -5.0300   -2.7430 h1        1 MOL      0.103102
     48 H21         2.9240   -4.5540   -4.0920 hc        1 MOL      0.103247
     49 H22         4.1440   -3.5180   -4.6340 hc        1 MOL      0.103247
     50 N4          5.8870   -2.5640   -1.2950 n         1 MOL     -0.014120
     51 C17         7.2000   -2.1830   -0.8490 c3        1 MOL     -0.261157
     52 C18         7.7520   -0.9110   -1.4510 c         1 MOL      0.622462
     53 O9          8.8460   -0.9030   -1.9100 o         1 MOL     -0.590548
     54 H23         5.1660   -2.6070   -0.5870 hn        1 MOL      0.142717
     55 H24         7.9720   -2.9280   -1.0710 h1        1 MOL      0.087239
     56 H25         7.0170   -2.0200    0.2020 h1        1 MOL      0.087239
     57 N5          6.8740    0.1030   -1.4460 n         1 MOL     -0.278403
     58 C19         7.2030    1.4490   -2.0310 c3        1 MOL      0.073925
     59 C20         7.2830    2.5850   -0.9730 c         1 MOL      0.515692
     60 O10         7.3210    3.7220   -1.3130 o         1 MOL     -0.532557
     61 C21         6.2370    1.9310   -3.1070 c3        1 MOL     -0.133500
     62 C22         4.7670    1.7950   -2.5670 c         1 MOL      0.628396
     63 O11         3.7870    1.4720   -3.2710 o         1 MOL     -0.697250
     64 O12         4.5690    1.9440   -1.3150 o         1 MOL     -0.697250
     65 H26         5.9560   -0.0680   -1.0470 hn        1 MOL      0.106805
     66 H27         8.2410    1.4340   -2.3780 h1        1 MOL      0.036385
     67 H28         6.3020    1.3190   -3.9980 hc        1 MOL      0.042227
     68 H29         6.4940    2.9520   -3.3950 hc        1 MOL      0.042227
     69 N6          7.3230    2.2450    0.2980 n         1 MOL     -0.427434
     70 C23         7.4010    3.1870    1.3960 c3        1 MOL      0.084405
     71 C24         6.1840    4.0770    1.6970 c         1 MOL      0.451769
     72 O13         6.2620    5.1160    2.3620 o         1 MOL     -0.566653
     73 H30         7.1780    1.3400    0.7120 hn        1 MOL      0.279423
     74 H31         8.3290    3.7420    1.4830 h1        1 MOL      0.029837
     75 H32         7.4530    2.5300    2.2630 h1        1 MOL      0.029837
     76 N7          4.9310    3.7120    1.2390 n         1 MOL     -0.223353
     77 C25         3.6540    4.2750    1.6800 c3        1 MOL      0.014243
     78 C26         2.5670    3.1350    1.5980 c         1 MOL      0.609212
     79 O14         2.7200    2.0310    1.1240 o         1 MOL     -0.645952
     80 C27         3.3990    5.6140    0.9340 c3        1 MOL     -0.036368
     81 C28         3.3170    5.4390   -0.5740 c3        1 MOL     -0.100850
     82 C29         2.9410    6.7140   -1.3870 c         1 MOL      0.640619
     83 N8          2.2090    6.6790   -2.4850 n         1 MOL     -0.793623
     84 O15         3.2650    7.8450   -1.0310 o         1 MOL     -0.580796
     85 H33         4.8110    3.0170    0.5260 hn        1 MOL      0.176130
     86 H34         3.6670    4.4540    2.7580 h1        1 MOL      0.042174
     87 H35         4.1210    6.3960    1.1410 hc        1 MOL      0.026242
     88 H36         2.4670    5.9870    1.3640 hc        1 MOL      0.026242
     89 H37         2.5660    4.6690   -0.7620 hc        1 MOL      0.064351
     90 H38         4.2530    5.0680   -0.9810 hc        1 MOL      0.064351
     91 H39         1.8810    5.8500   -2.9570 hn        1 MOL      0.350494
     92 H40         2.1270    7.5650   -2.9690 hn        1 MOL      0.350494
     93 N9          1.3580    3.4680    2.1600 n         1 MOL     -0.488342
     94 C30         0.1700    2.5560    2.1230 c3        1 MOL      0.076783
     95 C31        -1.0730    3.1420    1.3920 c         1 MOL      0.403109
     96 O16        -1.3620    4.3180    1.6660 o         1 MOL     -0.562889
     97 C32        -0.2610    2.2780    3.5870 c3        1 MOL      0.237274
     98 C33        -1.4730    1.3630    3.5960 c3        1 MOL     -0.392952
     99 C34         0.8910    1.5450    4.2430 c3        1 MOL     -0.392952
    100 H41         1.2970    4.3350    2.6820 hn        1 MOL      0.286831
    101 H42         0.3240    1.5700    1.6900 h1        1 MOL      0.127434
    102 H43        -0.5650    3.2180    4.0430 hc        1 MOL     -0.019565
    103 H44        -1.4150    0.5530    2.8730 hc        1 MOL      0.090851
    104 H45        -1.6970    0.9450    4.5860 hc        1 MOL      0.090851
    105 H46        -2.3290    2.0230    3.4350 hc        1 MOL      0.090851
    106 H47         0.6890    1.2330    5.2690 hc        1 MOL      0.090851
    107 H48         1.0940    0.6850    3.6060 hc        1 MOL      0.090851
    108 H49         1.7980    2.1340    4.3400 hc        1 MOL      0.090851
    109 N10        -1.5640    2.3930    0.3870 n         1 MOL     -0.162460
    110 C35        -2.7970    2.6400   -0.4190 c3        1 MOL      0.000636
    111 C36        -4.0940    2.1880    0.2210 c         1 MOL      0.328478
    112 O17        -4.0990    1.2430    1.0400 o         1 MOL     -0.323109
    113 C37        -2.5720    1.8350   -1.7210 c3        1 MOL     -0.293421
    114 C38        -3.6690    2.0330   -2.7250 c         1 MOL      0.623143
    115 N11        -3.9970    3.2310   -3.0530 n         1 MOL     -0.726096
    116 O18        -4.2560    1.0690   -3.2110 o         1 MOL     -0.519138
    117 H50        -1.1260    1.4820    0.2590 hn        1 MOL      0.284011
    118 H51        -2.7860    3.6910   -0.7050 h1        1 MOL      0.041669
    119 H52        -2.7300    0.7730   -1.5060 hc        1 MOL      0.131432
    120 H53        -1.6770    2.2190   -2.2110 hc        1 MOL      0.131432
    121 H54        -3.5710    4.0740   -2.7050 hn        1 MOL      0.344719
    122 H55        -4.7500    3.3810   -3.7060 hn        1 MOL      0.344719
    123 N12        -5.2450    2.7170   -0.2500 n         1 MOL     -0.347749
    124 C39        -6.5560    2.3150    0.2740 c3        1 MOL      0.076474
    125 C40        -6.8690    0.7650    0.0830 c         1 MOL      0.775780
    126 O19        -7.2710    0.1480    1.0450 o         1 MOL     -0.554434
    127 C41        -7.6150    3.1920   -0.4480 c3        1 MOL     -0.286260
    128 C42        -9.0310    2.5890   -0.2210 ca        1 MOL     -0.008583
    129 C43        -9.5330    2.6280    1.1050 ca        1 MOL     -0.100108
    130 C44        -9.7870    2.1110   -1.2730 ca        1 MOL     -0.100108
    131 C45       -10.8790    2.1430    1.3500 ca        1 MOL     -0.315310
    132 C46       -11.1020    1.6540   -1.0230 ca        1 MOL     -0.315310
    133 C47       -11.6010    1.6290    0.2810 ca        1 MOL      0.377684
    134 O20       -12.8350    1.0550    0.6270 oh        1 MOL     -0.513700
    135 H56        -5.2570    3.3920   -1.0020 hn        1 MOL      0.211368
    136 H57        -6.5660    2.5720    1.3310 h1        1 MOL      0.077028
    137 H58        -7.4880    3.4000   -1.5200 hc        1 MOL      0.102557
    138 H59        -7.6530    4.1390    0.0910 hc        1 MOL      0.102557
    139 H60        -8.9110    2.9190    1.9380 ha        1 MOL      0.128694
    140 H61        -9.3790    2.0530   -2.2700 ha        1 MOL      0.128694
    141 H62       -11.2920    2.0460    2.3430 ha        1 MOL      0.164716
    142 H63       -11.7310    1.1900   -1.7710 ha        1 MOL      0.164716
    143 H64       -13.3130    0.7360   -0.1570 ho        1 MOL      0.355915
    144 N13        -6.5500    0.1240   -1.0810 n         1 MOL     -0.480585
    145 C48        -6.6130   -1.2970   -1.2560 c3        1 MOL     -0.180559
    146 C49        -5.7040   -2.0780   -0.2540 c         1 MOL      0.356137
    147 O21        -5.9990   -3.1860    0.1860 o         1 MOL     -0.461079
    148 C50        -6.3550   -1.6850   -2.6990 c3        1 MOL      0.163788
    149 C51        -6.7020   -3.1600   -2.9170 c3        1 MOL     -0.421574
    150 C52        -6.8710   -3.6300   -4.4030 c         1 MOL      0.780504
    151 O22        -5.9550   -4.2830   -4.9420 o         1 MOL     -0.760376
    152 O23        -7.9020   -3.2940   -5.0430 o         1 MOL     -0.760376
    153 H65        -6.0600    0.6750   -1.7710 hn        1 MOL      0.236767
    154 H66        -7.6240   -1.6450   -1.0340 h1        1 MOL      0.150351
    155 H67        -5.3030   -1.4950   -2.9010 hc        1 MOL      0.020946
    156 H68        -6.8160   -1.0190   -3.4230 hc        1 MOL      0.020946
    157 H69        -7.6060   -3.3780   -2.3430 hc        1 MOL      0.084871
    158 H70        -5.8100   -3.6570   -2.5430 hc        1 MOL      0.084871
    159 N14        -4.4770   -1.5180    0.0970 n         1 MOL     -0.093927
    160 C53        -3.6610   -2.1600    1.1680 c3        1 MOL     -0.056914
    161 C54        -4.2020   -2.0510    2.6410 c         1 MOL      0.382020
    162 O24        -4.1080   -3.0150    3.4540 o         1 MOL     -0.565827
    163 C55        -2.2300   -1.6290    1.2000 c3        1 MOL      0.109894
    164 C56        -1.3760   -1.8630   -0.0160 c3        1 MOL      0.006302
    165 C57        -0.0370   -1.1280   -0.0200 c         1 MOL      0.838460
    166 O25         1.0440   -1.7820    0.2080 o         1 MOL     -0.804840
    167 O26         0.0920    0.1000   -0.2340 o         1 MOL     -0.804840
    168 H71        -4.2330   -0.6170   -0.2850 hn        1 MOL      0.096650
    169 H72        -3.5470   -3.2200    0.9250 h1        1 MOL      0.086915
    170 H73        -1.7040   -2.0170    2.0800 hc        1 MOL      0.003708
    171 H74        -2.3590   -0.5480    1.2470 hc        1 MOL      0.003708
    172 H75        -1.8960   -1.5890   -0.9380 hc        1 MOL     -0.034860
    173 H76        -1.1910   -2.9330   -0.0520 hc        1 MOL     -0.034860
    174 N15        -4.7830   -0.9440    2.9530 n         1 MOL      0.033055
    175 C58        -5.6750   -0.7060    4.1300 c3        1 MOL     -0.347403
    176 H77        -5.0700   -0.6420    5.0350 h1        1 MOL      0.122285
    177 H78        -6.2210    0.2270    3.9910 h1        1 MOL      0.122285
    178 H79        -6.3810   -1.5310    4.2230 h1        1 MOL      0.122285
    179 H80        -4.6980   -0.2310    2.2470 hn        1 MOL     -0.001290
    180 Ca1         2.5360    0.3570   -1.0390 Ca        1 MOL      1.784563
    181 O27         1.0590    2.5970   -1.6750 oh        1 MOL     -0.860816
    182 H81         0.4520    2.1010   -2.2230 ho        1 MOL      0.392880
    183 H82         1.5370    3.1590   -2.2850 ho        1 MOL      0.392880
    184 O28         0.5460   -0.0220   -3.0160 oh        1 MOL     -0.860816
    185 H83        -0.3880    0.0880   -3.1990 ho        1 MOL      0.392880
    186 H84         0.8150   -0.7530   -3.5710 ho        1 MOL      0.392880
@<TRIPOS>BOND
     1    1    2 1   
     2    1    4 1   
     3    1    5 1   
     4    1    6 1   
     5    2    3 2   
     6    2    7 1   
     7    7    8 1   
     8    7   15 1   
     9    8    9 1   
    10    8   11 1   
    11    8   16 1   
    12    9   10 2   
    13    9   19 1   
    14   11   12 1   
    15   11   17 1   
    16   11   18 1   
    17   12   13 1   
    18   12   14 1   
    19   19   20 1   
    20   19   27 1   
    21   20   21 1   
    22   20   23 1   
    23   20   28 1   
    24   21   22 2   
    25   21   38 1   
    26   23   24 1   
    27   23   25 1   
    28   23   29 1   
    29   24   26 1   
    30   24   30 1   
    31   24   31 1   
    32   25   32 1   
    33   25   33 1   
    34   25   34 1   
    35   26   35 1   
    36   26   36 1   
    37   26   37 1   
    38   38   39 1   
    39   38   46 1   
    40   39   40 1   
    41   39   42 1   
    42   39   47 1   
    43   40   41 2   
    44   40   50 1   
    45   42   43 1   
    46   42   48 1   
    47   42   49 1   
    48   43   44 1   
    49   43   45 1   
    50   50   51 1   
    51   50   54 1   
    52   51   52 1   
    53   51   55 1   
    54   51   56 1   
    55   52   53 2   
    56   52   57 1   
    57   57   58 1   
    58   57   65 1   
    59   58   59 1   
    60   58   61 1   
    61   58   66 1   
    62   59   60 2   
    63   59   69 1   
    64   61   62 1   
    65   61   67 1   
    66   61   68 1   
    67   62   63 1   
    68   62   64 1   
    69   69   70 1   
    70   69   73 1   
    71   70   71 1   
    72   70   74 1   
    73   70   75 1   
    74   71   72 2   
    75   71   76 1   
    76   76   77 1   
    77   76   85 1   
    78   77   78 1   
    79   77   80 1   
    80   77   86 1   
    81   78   79 2   
    82   78   93 1   
    83   80   81 1   
    84   80   87 1   
    85   80   88 1   
    86   81   82 1   
    87   81   89 1   
    88   81   90 1   
    89   82   83 1   
    90   82   84 2   
    91   83   91 1   
    92   83   92 1   
    93   93   94 1   
    94   93  100 1   
    95   94   95 1   
    96   94   97 1   
    97   94  101 1   
    98   95   96 2   
    99   95  109 1   
   100   97   98 1   
   101   97   99 1   
   102   97  102 1   
   103   98  103 1   
   104   98  104 1   
   105   98  105 1   
   106   99  106 1   
   107   99  107 1   
   108   99  108 1   
   109  109  110 1   
   110  109  117 1   
   111  110  111 1   
   112  110  113 1   
   113  110  118 1   
   114  111  112 2   
   115  111  123 1   
   116  113  114 1   
   117  113  119 1   
   118  113  120 1   
   119  114  115 1   
   120  114  116 2   
   121  115  121 1   
   122  115  122 1   
   123  123  124 1   
   124  123  135 1   
   125  124  125 1   
   126  124  127 1   
   127  124  136 1   
   128  125  126 2   
   129  125  144 1   
   130  127  128 1   
   131  127  137 1   
   132  127  138 1   
   133  128  129 ar  
   134  128  130 ar  
   135  129  131 ar  
   136  129  139 1   
   137  130  132 ar  
   138  130  140 1   
   139  131  133 ar  
   140  131  141 1   
   141  132  133 ar  
   142  132  142 1   
   143  133  134 1   
   144  134  143 1   
   145  144  145 1   
   146  144  153 1   
   147  145  146 1   
   148  145  148 1   
   149  145  154 1   
   150  146  147 2   
   151  146  159 1   
   152  148  149 1   
   153  148  155 1   
   154  148  156 1   
   155  149  150 1   
   156  149  157 1   
   157  149  158 1   
   158  150  151 1   
   159  150  152 1   
   160  159  160 1   
   161  159  168 1   
   162  160  161 1   
   163  160  163 1   
   164  160  169 1   
   165  161  162 2   
   166  161  174 1   
   167  163  164 1   
   168  163  170 1   
   169  163  171 1   
   170  164  165 1   
   171  164  172 1   
   172  164  173 1   
   173  165  166 1   
   174  165  167 1   
   175  174  175 1   
   176  174  179 1   
   177  175  176 1   
   178  175  177 1   
   179  175  178 1   
   180  181  182 1   
   181  181  183 1   
   182  184  185 1   
   183  184  186 1   
@<TRIPOS>SUBSTRUCTURE
     1 MOL         1 TEMP              0 ****  ****    0 ROOT
