@<TRIPOS>MOLECULE
MOL
  189   185     1     0     0
SMALL
resp


@<TRIPOS>ATOM
      1 C1         -1.0380    2.6400    6.2450 c3        1 MOL     -0.504766
      2 C2         -1.2510    2.1460    4.8440 c         1 MOL      0.746476
      3 O1         -0.3370    2.2600    4.0480 o         1 MOL     -0.609883
      4 H1         -0.1870    2.1220    6.6870 hc        1 MOL      0.127198
      5 H2         -0.8390    3.7120    6.2270 hc        1 MOL      0.127198
      6 H3         -1.9300    2.4460    6.8400 hc        1 MOL      0.127198
      7 N1         -2.4390    1.6690    4.4660 n         1 MOL     -0.546527
      8 C3         -2.7790    1.4170    3.0630 c3        1 MOL      0.150780
      9 C4         -3.1830    2.7270    2.3460 c         1 MOL      0.399179
     10 O2         -4.2840    3.2000    2.6030 o         1 MOL     -0.516335
     11 C5         -3.9090    0.3530    3.0290 c3        1 MOL     -0.218208
     12 C6         -4.4340    0.1160    1.5930 c         1 MOL      0.921337
     13 O3         -5.4880   -0.4720    1.4110 o         1 MOL     -0.752014
     14 O4         -3.9050    0.5270    0.5640 o         1 MOL     -0.752014
     15 H4         -3.1580    1.4070    5.1270 hn        1 MOL      0.311175
     16 H5         -1.9110    0.9370    2.6020 h1        1 MOL      0.018867
     17 H6         -4.7460    0.6930    3.6370 hc        1 MOL      0.044623
     18 H7         -3.5070   -0.5990    3.3790 hc        1 MOL      0.044623
     19 N2         -2.3310    3.2740    1.5120 n         1 MOL     -0.032501
     20 C7         -2.3600    4.5970    1.1210 c3        1 MOL     -0.181568
     21 C8         -3.4920    4.9580    0.1260 c         1 MOL      0.433438
     22 O5         -4.0190    6.1160    0.1650 o         1 MOL     -0.570295
     23 C9         -0.9770    4.9410    0.5760 c3        1 MOL     -0.142821
     24 C10        -0.7100    6.4020    0.2880 c3        1 MOL     -0.086690
     25 C11         0.7780    6.6570   -0.0830 c3        1 MOL      0.014028
     26 C12         1.1230    8.1520   -0.1050 c3        1 MOL      0.057076
     27 N3          2.5800    8.3200   -0.1300 n4        1 MOL     -0.326322
     28 H8         -1.4730    2.8220    1.2280 hn        1 MOL      0.109665
     29 H9         -2.5000    5.1700    2.0350 h1        1 MOL      0.104561
     30 H10        -0.8140    4.3740   -0.3450 hc        1 MOL      0.113177
     31 H11        -0.2310    4.5870    1.2960 hc        1 MOL      0.113177
     32 H12        -0.9130    7.0240    1.1500 hc        1 MOL      0.067344
     33 H13        -1.4110    6.7240   -0.4800 hc        1 MOL      0.067344
     34 H14         0.9390    6.2400   -1.0870 hc        1 MOL      0.015807
     35 H15         1.4820    6.1790    0.5940 hc        1 MOL      0.015807
     36 H16         0.5350    8.6950    0.6370 hx        1 MOL      0.069357
     37 H17         0.6550    8.4120   -1.0520 hx        1 MOL      0.069357
     38 H18         3.0940    8.1680    0.7260 hn        1 MOL      0.317717
     39 H19         2.9090    7.6690   -0.8330 hn        1 MOL      0.317717
     40 H20         2.8360    9.2650   -0.3890 hn        1 MOL      0.317717
     41 N4         -3.7300    4.0910   -0.8670 n         1 MOL     -0.178850
     42 C13        -4.6040    4.0880   -2.0400 c3        1 MOL     -0.142382
     43 C14        -5.7840    3.0720   -1.9990 c         1 MOL      0.453389
     44 O6         -6.7270    3.1850   -2.7700 o         1 MOL     -0.512517
     45 C15        -3.7430    3.8840   -3.3120 c3        1 MOL     -0.064263
     46 C16        -2.7010    2.7770   -3.2790 c         1 MOL      0.684628
     47 O7         -2.5120    2.1490   -2.1950 o         1 MOL     -0.689361
     48 O8         -1.9530    2.5550   -4.2730 o         1 MOL     -0.689361
     49 H21        -3.0960    3.3040   -0.8930 hn        1 MOL      0.169433
     50 H22        -4.9900    5.0870   -2.1880 h1        1 MOL      0.124132
     51 H23        -3.1920    4.8150   -3.4770 hc        1 MOL      0.038004
     52 H24        -4.2870    3.9630   -4.2530 hc        1 MOL      0.038004
     53 N5         -5.8790    2.2270   -0.9670 n         1 MOL      0.024532
     54 C17        -7.0240    1.3640   -0.6460 c3        1 MOL     -0.563011
     55 C18        -7.2540    0.3000   -1.6740 c         1 MOL      0.719078
     56 O9         -7.9480    0.3850   -2.6920 o         1 MOL     -0.534493
     57 H25        -5.0690    2.1460   -0.3610 hn        1 MOL      0.098062
     58 H26        -7.8930    2.0220   -0.6960 h1        1 MOL      0.194265
     59 H27        -6.8660    1.0570    0.3870 h1        1 MOL      0.194265
     60 N6         -6.6410   -0.8530   -1.3260 n         1 MOL     -0.359567
     61 C19        -6.7950   -2.0720   -2.0600 c3        1 MOL     -0.001482
     62 C20        -6.7970   -3.2480   -1.0660 c         1 MOL      0.436030
     63 O10        -7.2130   -4.3450   -1.4110 o         1 MOL     -0.554444
     64 C21        -5.5640   -2.3040   -3.0460 c3        1 MOL      0.006403
     65 C22        -4.2850   -1.6980   -2.3500 c         1 MOL      0.610246
     66 O11        -3.7940   -0.6130   -2.8120 o         1 MOL     -0.699048
     67 O12        -3.8220   -2.2670   -1.3550 o         1 MOL     -0.699048
     68 H28        -6.1520   -0.7110   -0.4600 hn        1 MOL      0.152231
     69 H29        -7.7630   -2.1070   -2.5440 h1        1 MOL      0.087970
     70 H30        -5.7270   -1.8420   -4.0180 hc        1 MOL      0.014640
     71 H31        -5.3630   -3.3590   -3.2370 hc        1 MOL      0.014640
     72 N7         -6.3470   -3.1480    0.1720 n         1 MOL     -0.224186
     73 C23        -6.2910   -4.1680    1.1880 c3        1 MOL     -0.097786
     74 C24        -4.9150   -4.7930    1.2330 c         1 MOL      0.506629
     75 O13        -4.8370   -5.9170    1.7490 o         1 MOL     -0.561549
     76 H32        -6.0400   -2.2490    0.5220 hn        1 MOL      0.244089
     77 H33        -6.9170   -5.0330    0.9640 h1        1 MOL      0.093763
     78 H34        -6.6120   -3.8660    2.1770 h1        1 MOL      0.093763
     79 N8         -3.8440   -4.1780    0.6260 n         1 MOL     -0.342641
     80 C25        -2.4850   -4.7740    0.5140 c3        1 MOL     -0.167160
     81 C26        -1.5000   -3.6290    0.7890 c         1 MOL      0.623404
     82 O14        -1.7660   -2.4540    0.4440 o         1 MOL     -0.664248
     83 C27        -2.2450   -5.4800   -0.8420 c3        1 MOL      0.510956
     84 C28        -3.1010   -6.8040   -1.1720 c3        1 MOL     -0.507848
     85 O15        -2.4620   -4.6100   -1.9150 oh        1 MOL     -0.617488
     86 H35        -4.0650   -3.3010    0.1830 hn        1 MOL      0.265386
     87 H36        -2.3260   -5.5680    1.2450 h1        1 MOL      0.096464
     88 H37        -1.2010   -5.7700   -0.8420 h1        1 MOL     -0.047176
     89 H38        -2.9580   -3.8770   -1.5200 ho        1 MOL      0.410156
     90 H39        -2.9580   -7.1490   -2.1930 hc        1 MOL      0.133824
     91 H40        -2.9160   -7.5980   -0.4560 hc        1 MOL      0.133824
     92 H41        -4.1760   -6.6050   -1.0760 hc        1 MOL      0.133824
     93 N9         -0.2890   -3.9410    1.3230 n         1 MOL     -0.574953
     94 C29         0.8620   -2.9650    1.6440 c3        1 MOL      0.170244
     95 C30         2.0800   -3.3230    0.7670 c         1 MOL      0.405531
     96 O16         2.7090   -4.4350    0.8940 o         1 MOL     -0.548600
     97 C31         1.1680   -3.0730    3.1420 c3        1 MOL     -0.034870
     98 C32        -0.0420   -2.4700    3.9280 c3        1 MOL      0.150256
     99 C33         2.5210   -2.5360    3.6190 c3        1 MOL     -0.097807
    100 C34         0.2230   -2.2500    5.4520 c3        1 MOL     -0.317607
    101 H42        -0.2080   -4.8500    1.7590 hn        1 MOL      0.291257
    102 H43         0.5100   -1.9550    1.4620 h1        1 MOL      0.077239
    103 H44         1.1610   -4.1370    3.4030 hc        1 MOL      0.032631
    104 H45        -0.9250   -3.1000    4.0040 hc        1 MOL     -0.004153
    105 H46        -0.3430   -1.5230    3.4770 hc        1 MOL     -0.004153
    106 H47         2.5650   -2.7500    4.6920 hc        1 MOL      0.015841
    107 H48         3.4370   -2.8950    3.1480 hc        1 MOL      0.015841
    108 H49         2.5780   -1.4580    3.4620 hc        1 MOL      0.015841
    109 H50         0.8270   -1.3490    5.4960 hc        1 MOL      0.080632
    110 H51        -0.6730   -2.2200    6.0780 hc        1 MOL      0.080632
    111 H52         0.7440   -3.1180    5.8520 hc        1 MOL      0.080632
    112 N10         2.5380   -2.3840   -0.0370 n         1 MOL     -0.127874
    113 C35         3.7550   -2.5820   -0.8400 c3        1 MOL     -0.071765
    114 C36         4.9980   -2.3860   -0.0500 c         1 MOL      0.357017
    115 O17         4.9200   -1.8060    1.0280 o         1 MOL     -0.255869
    116 C37         3.8390   -1.5750   -1.9420 c3        1 MOL     -0.111624
    117 C38         2.6350   -1.7140   -2.9120 c3        1 MOL     -0.292531
    118 O18         3.7560   -0.2590   -1.4800 oh        1 MOL     -0.077287
    119 H53         2.0220   -1.5390   -0.2340 hn        1 MOL      0.163576
    120 H54         3.7960   -3.6060   -1.2120 h1        1 MOL      0.118492
    121 H55         4.7880   -1.7850   -2.4130 h1        1 MOL      0.050627
    122 H56         3.2990    0.2720   -2.1370 ho        1 MOL      0.273774
    123 H57         2.4940   -2.7580   -3.1920 hc        1 MOL      0.099990
    124 H58         1.6880   -1.3100   -2.5600 hc        1 MOL      0.099990
    125 H59         2.8850   -1.2620   -3.8740 hc        1 MOL      0.099990
    126 N11         6.1740   -2.7650   -0.5440 n         1 MOL     -0.421540
    127 C39         7.5170   -2.1250   -0.0650 c3        1 MOL      0.069646
    128 C40         7.4060   -0.6230    0.2950 c         1 MOL      0.150436
    129 O19         7.8990   -0.1820    1.3890 o         1 MOL     -0.420366
    130 C41         8.5430   -2.3050   -1.1740 c3        1 MOL      0.159188
    131 C42         9.1460   -3.7310   -1.0380 c3        1 MOL     -0.460671
    132 O20         7.9590   -2.1610   -2.4510 oh        1 MOL     -0.584897
    133 H60         6.2240   -3.1890   -1.4570 hn        1 MOL      0.303607
    134 H61         7.8820   -2.7470    0.7580 h1        1 MOL      0.124991
    135 H62         9.3320   -1.5590   -1.1320 h1        1 MOL      0.078519
    136 H63         8.5920   -2.5220   -3.0840 ho        1 MOL      0.370880
    137 H64         9.3670   -4.0840   -0.0300 hc        1 MOL      0.142715
    138 H65         8.4040   -4.4150   -1.4540 hc        1 MOL      0.142715
    139 H66        10.1000   -3.7820   -1.5660 hc        1 MOL      0.142715
    140 N12         6.6730    0.1720   -0.5460 n         1 MOL     -0.050552
    141 C43         6.6850    1.6240   -0.4540 c3        1 MOL      0.039217
    142 C44         5.8050    2.0130    0.7830 c         1 MOL      0.270222
    143 O21         6.2310    2.8050    1.6130 o         1 MOL     -0.474013
    144 C45         6.1300    2.3400   -1.7280 c3        1 MOL     -0.220878
    145 C46         6.3080    1.6590   -3.1290 c3        1 MOL     -0.001605
    146 C47         7.7230    1.3850   -3.7020 c3        1 MOL      0.016389
    147 C48         7.7200    0.3990   -4.8500 c3        1 MOL      0.118349
    148 N13         9.0800    0.2270   -5.3550 n4        1 MOL     -0.321772
    149 H67         6.1730   -0.1950   -1.3410 hn        1 MOL      0.227233
    150 H68         7.6000    2.1680   -0.2230 h1        1 MOL      0.065244
    151 H69         6.6290    3.2960   -1.8410 hc        1 MOL      0.096117
    152 H70         5.0660    2.5540   -1.6390 hc        1 MOL      0.096117
    153 H71         5.7630    2.3190   -3.7950 hc        1 MOL      0.005130
    154 H72         5.8400    0.6790   -3.1540 hc        1 MOL      0.005130
    155 H73         8.3640    1.0170   -2.8970 hc        1 MOL      0.009876
    156 H74         8.1720    2.2960   -4.1150 hc        1 MOL      0.009876
    157 H75         7.0820    0.7130   -5.6770 hx        1 MOL      0.048119
    158 H76         7.3890   -0.5890   -4.5200 hx        1 MOL      0.048119
    159 H77         9.5860    1.0780   -5.5600 hn        1 MOL      0.277747
    160 H78         9.6510   -0.2620   -4.6860 hn        1 MOL      0.277747
    161 H79         8.9820   -0.3000   -6.2130 hn        1 MOL      0.277747
    162 N14         4.6430    1.3100    0.8840 n         1 MOL     -0.029661
    163 C49         3.7310    1.4750    2.0290 c3        1 MOL     -0.273775
    164 C50         4.2110    0.7420    3.2900 c         1 MOL      0.479420
    165 O22         3.7340    1.0580    4.3680 o         1 MOL     -0.542240
    166 C51         2.3860    0.7930    1.6780 c3        1 MOL      0.087237
    167 C52         1.7050    1.5820    0.6040 c3        1 MOL     -0.009546
    168 C53         0.3880    0.8800    0.2280 c         1 MOL      0.570907
    169 O23         0.3730   -0.2710   -0.2960 o         1 MOL     -0.636207
    170 O24        -0.6660    1.5360    0.3270 o         1 MOL     -0.636207
    171 H80         4.3480    0.6010    0.2310 hn        1 MOL     -0.081325
    172 H81         3.5930    2.5290    2.2580 h1        1 MOL      0.150727
    173 H82         1.7640    0.9160    2.5550 hc        1 MOL      0.061709
    174 H83         2.4980   -0.2740    1.4910 hc        1 MOL      0.061709
    175 H84         2.3290    1.6950   -0.2840 hc        1 MOL     -0.035022
    176 H85         1.5130    2.6360    0.8310 hc        1 MOL     -0.035022
    177 N15         5.2080   -0.1370    3.1440 n         1 MOL     -0.041693
    178 C54         5.8360   -0.7200    4.3370 c3        1 MOL     -0.208059
    179 H86         5.6900   -1.8000    4.3320 h1        1 MOL      0.080079
    180 H87         6.9030   -0.4980    4.3310 h1        1 MOL      0.080079
    181 H88         5.3820   -0.2960    5.2320 h1        1 MOL      0.080079
    182 H89         5.3370   -0.5400    2.2280 hn        1 MOL      0.120803
    183 Ca1        -2.0300   -0.1890   -1.0680 Ca        1 MOL      1.722614
    184 O25        -1.0400   -2.3580   -2.7640 oh        1 MOL     -0.816863
    185 H90        -1.6900   -3.0550   -2.7120 ho        1 MOL      0.379639
    186 H91        -0.3350   -2.7210   -3.2930 ho        1 MOL      0.379639
    187 O26        -0.3080    0.4950   -3.2950 oh        1 MOL     -0.816863
    188 H92        -0.5530   -0.1970   -3.9210 ho        1 MOL      0.379639
    189 H93        -0.8440    1.2450   -3.5490 ho        1 MOL      0.379639
@<TRIPOS>BOND
     1    1    2 1   
     2    1    4 1   
     3    1    5 1   
     4    1    6 1   
     5    2    3 2   
     6    2    7 1   
     7    7    8 1   
     8    7   15 1   
     9    8    9 1   
    10    8   11 1   
    11    8   16 1   
    12    9   10 2   
    13    9   19 1   
    14   11   12 1   
    15   11   17 1   
    16   11   18 1   
    17   12   13 1   
    18   12   14 1   
    19   19   20 1   
    20   19   28 1   
    21   20   21 1   
    22   20   23 1   
    23   20   29 1   
    24   21   22 2   
    25   21   41 1   
    26   23   24 1   
    27   23   30 1   
    28   23   31 1   
    29   24   25 1   
    30   24   32 1   
    31   24   33 1   
    32   25   26 1   
    33   25   34 1   
    34   25   35 1   
    35   26   27 1   
    36   26   36 1   
    37   26   37 1   
    38   27   38 1   
    39   27   39 1   
    40   27   40 1   
    41   41   42 1   
    42   41   49 1   
    43   42   43 1   
    44   42   45 1   
    45   42   50 1   
    46   43   44 2   
    47   43   53 1   
    48   45   46 1   
    49   45   51 1   
    50   45   52 1   
    51   46   47 1   
    52   46   48 1   
    53   53   54 1   
    54   53   57 1   
    55   54   55 1   
    56   54   58 1   
    57   54   59 1   
    58   55   56 2   
    59   55   60 1   
    60   60   61 1   
    61   60   68 1   
    62   61   62 1   
    63   61   64 1   
    64   61   69 1   
    65   62   63 2   
    66   62   72 1   
    67   64   65 1   
    68   64   70 1   
    69   64   71 1   
    70   65   66 1   
    71   65   67 1   
    72   72   73 1   
    73   72   76 1   
    74   73   74 1   
    75   73   77 1   
    76   73   78 1   
    77   74   75 2   
    78   74   79 1   
    79   79   80 1   
    80   79   86 1   
    81   80   81 1   
    82   80   83 1   
    83   80   87 1   
    84   81   82 2   
    85   81   93 1   
    86   83   84 1   
    87   83   85 1   
    88   83   88 1   
    89   84   90 1   
    90   84   91 1   
    91   84   92 1   
    92   85   89 1   
    93   93   94 1   
    94   93  101 1   
    95   94   95 1   
    96   94   97 1   
    97   94  102 1   
    98   95   96 2   
    99   95  112 1   
   100   97   98 1   
   101   97   99 1   
   102   97  103 1   
   103   98  100 1   
   104   98  104 1   
   105   98  105 1   
   106   99  106 1   
   107   99  107 1   
   108   99  108 1   
   109  100  109 1   
   110  100  110 1   
   111  100  111 1   
   112  112  113 1   
   113  112  119 1   
   114  113  114 1   
   115  113  116 1   
   116  113  120 1   
   117  114  115 2   
   118  114  126 1   
   119  116  117 1   
   120  116  118 1   
   121  116  121 1   
   122  117  123 1   
   123  117  124 1   
   124  117  125 1   
   125  118  122 1   
   126  126  127 1   
   127  126  133 1   
   128  127  128 1   
   129  127  130 1   
   130  127  134 1   
   131  128  129 2   
   132  128  140 1   
   133  130  131 1   
   134  130  132 1   
   135  130  135 1   
   136  131  137 1   
   137  131  138 1   
   138  131  139 1   
   139  132  136 1   
   140  140  141 1   
   141  140  149 1   
   142  141  142 1   
   143  141  144 1   
   144  141  150 1   
   145  142  143 2   
   146  142  162 1   
   147  144  145 1   
   148  144  151 1   
   149  144  152 1   
   150  145  146 1   
   151  145  153 1   
   152  145  154 1   
   153  146  147 1   
   154  146  155 1   
   155  146  156 1   
   156  147  148 1   
   157  147  157 1   
   158  147  158 1   
   159  148  159 1   
   160  148  160 1   
   161  148  161 1   
   162  162  163 1   
   163  162  171 1   
   164  163  164 1   
   165  163  166 1   
   166  163  172 1   
   167  164  165 2   
   168  164  177 1   
   169  166  167 1   
   170  166  173 1   
   171  166  174 1   
   172  167  168 1   
   173  167  175 1   
   174  167  176 1   
   175  168  169 1   
   176  168  170 1   
   177  177  178 1   
   178  177  182 1   
   179  178  179 1   
   180  178  180 1   
   181  178  181 1   
   182  184  185 1   
   183  184  186 1   
   184  187  188 1   
   185  187  189 1   
@<TRIPOS>SUBSTRUCTURE
     1 MOL         1 TEMP              0 ****  ****    0 ROOT
