@<TRIPOS>MOLECULE
MOL
  189   185     1     0     0
SMALL
resp


@<TRIPOS>ATOM
      1 C1          0.0120   -2.5030    6.2400 c3        1 MOL     -0.393325
      2 C2          0.4660   -2.2850    4.7370 c         1 MOL      0.840822
      3 O1          0.5060   -1.1770    4.2930 o         1 MOL     -0.664233
      4 H1         -0.9950   -2.1100    6.3760 hc        1 MOL      0.094969
      5 H2          0.0190   -3.5680    6.4720 hc        1 MOL      0.094969
      6 H3          0.6980   -1.9800    6.9070 hc        1 MOL      0.094969
      7 N1          0.8300   -3.3690    4.0250 n         1 MOL     -0.771446
      8 C3          1.5420   -3.2910    2.7470 c3        1 MOL      0.485019
      9 C4          1.2610   -4.5080    1.8500 c         1 MOL      0.434648
     10 O2          0.9670   -5.5810    2.3620 o         1 MOL     -0.591564
     11 C5          3.0220   -3.1800    3.0740 c3        1 MOL     -0.457762
     12 C6          3.9010   -2.7800    1.9320 c         1 MOL      0.810896
     13 O3          5.1030   -2.8710    2.0510 o         1 MOL     -0.678127
     14 O4          3.4200   -2.3510    0.8560 o         1 MOL     -0.678127
     15 H4          0.8240   -4.3150    4.4110 hn        1 MOL      0.341155
     16 H5          1.2620   -2.3440    2.2720 h1        1 MOL      0.027135
     17 H6          3.3630   -4.0620    3.5980 hc        1 MOL      0.090295
     18 H7          3.1020   -2.3090    3.7220 hc        1 MOL      0.090295
     19 N2          1.4440   -4.3330    0.5500 n         1 MOL     -0.213087
     20 C7          1.5070   -5.3960   -0.4820 c3        1 MOL     -0.030402
     21 C8          2.7470   -5.2790   -1.4060 c         1 MOL      0.438234
     22 O5          3.2930   -6.2350   -2.0400 o         1 MOL     -0.580223
     23 C9          0.2160   -5.3370   -1.2220 c3        1 MOL      0.154871
     24 C10        -0.9870   -5.7250   -0.3970 c3        1 MOL      0.195527
     25 C11         0.0900   -6.0840   -2.5720 c3        1 MOL     -0.170891
     26 C12        -1.4320   -7.1900   -0.1870 c3        1 MOL     -0.346542
     27 H8          1.5640   -3.3770    0.2460 hn        1 MOL      0.125829
     28 H9          1.5750   -6.3700   -0.0040 h1        1 MOL      0.077362
     29 H10         0.0180   -4.3240   -1.5710 hc        1 MOL      0.016511
     30 H11        -1.8470   -5.1510   -0.7460 hc        1 MOL     -0.010322
     31 H12        -0.9370   -5.2830    0.5910 hc        1 MOL     -0.010322
     32 H13         0.2990   -7.1370   -2.7170 hc        1 MOL      0.025517
     33 H14        -0.9260   -5.9140   -2.9200 hc        1 MOL      0.025517
     34 H15         0.6790   -5.4430   -3.2390 hc        1 MOL      0.025517
     35 H16        -1.5770   -7.6870   -1.1560 hc        1 MOL      0.069101
     36 H17        -0.7610   -7.7980    0.4210 hc        1 MOL      0.069101
     37 H18        -2.3710   -7.0760    0.3580 hc        1 MOL      0.069101
     38 N3          3.4700   -4.1190   -1.4440 n         1 MOL     -0.226298
     39 C13         4.4850   -3.8050   -2.4970 c3        1 MOL     -0.034046
     40 C14         5.7620   -3.1780   -2.0220 c         1 MOL      0.361854
     41 O6          6.6220   -2.8390   -2.8660 o         1 MOL     -0.543776
     42 C15         3.8130   -3.0050   -3.6640 c3        1 MOL     -0.110250
     43 C16         3.2360   -1.6410   -3.2880 c         1 MOL      0.755813
     44 O7          3.6560   -1.1200   -2.2420 o         1 MOL     -0.714564
     45 O8          2.4340   -1.0740   -4.0670 o         1 MOL     -0.714564
     46 H19         3.1350   -3.3570   -0.8790 hn        1 MOL      0.138745
     47 H20         4.8230   -4.6860   -3.0340 h1        1 MOL      0.125180
     48 H21         3.0330   -3.6280   -4.0870 hc        1 MOL      0.034009
     49 H22         4.5090   -2.9090   -4.4900 hc        1 MOL      0.034009
     50 N4          5.9680   -2.8570   -0.6960 n         1 MOL     -0.133458
     51 C17         7.2480   -2.3020   -0.2700 c3        1 MOL     -0.270762
     52 C18         7.6450   -0.8960   -0.7100 c         1 MOL      0.483149
     53 O9          8.7590   -0.4570   -0.2280 o         1 MOL     -0.621292
     54 H23         5.1690   -2.9780   -0.0840 hn        1 MOL      0.116660
     55 H24         8.0110   -3.0270   -0.5600 h1        1 MOL      0.125859
     56 H25         7.0690   -2.1590    0.7950 h1        1 MOL      0.125859
     57 N5          6.8630   -0.1130   -1.3990 n         1 MOL     -0.180522
     58 C19         7.2360    1.1710   -1.9750 c3        1 MOL     -0.002655
     59 C20         7.3220    2.2510   -0.7680 c         1 MOL      0.364182
     60 O10         7.8590    3.3200   -1.0010 o         1 MOL     -0.564202
     61 C21         6.1520    1.7370   -2.9370 c3        1 MOL     -0.272695
     62 C22         4.7770    1.9090   -2.3290 c         1 MOL      0.793265
     63 O11         4.4720    1.5710   -1.1640 o         1 MOL     -0.730691
     64 O12         3.8710    2.4600   -3.0300 o         1 MOL     -0.730691
     65 H26         5.9750   -0.4720   -1.7480 hn        1 MOL      0.244213
     66 H27         8.1040    1.0860   -2.6250 h1        1 MOL      0.089433
     67 H28         6.0010    0.9470   -3.6880 hc        1 MOL      0.086081
     68 H29         6.5200    2.6400   -3.4140 hc        1 MOL      0.086081
     69 N6          6.7630    2.0470    0.3900 n         1 MOL      0.029150
     70 C23         6.8930    2.8880    1.5400 c3        1 MOL     -0.364230
     71 C24         5.8430    3.9280    1.7600 c         1 MOL      0.618859
     72 O13         5.9840    4.8770    2.5410 o         1 MOL     -0.587432
     73 H30         6.0940    1.2930    0.3770 hn        1 MOL      0.093462
     74 H31         7.8390    3.4490    1.5370 h1        1 MOL      0.125882
     75 H32         6.8590    2.1710    2.3610 h1        1 MOL      0.125882
     76 N7          4.7170    3.7320    1.0200 n         1 MOL     -0.363600
     77 C25         3.4100    4.4580    1.0200 c3        1 MOL     -0.085639
     78 C26         2.2640    3.4750    1.0800 c         1 MOL      0.476274
     79 O14         2.3000    2.4590    0.3740 o         1 MOL     -0.485620
     80 C27         3.2630    5.3150   -0.2180 c3        1 MOL      0.085332
     81 C28         4.4770    6.2960   -0.4520 c3        1 MOL     -0.375246
     82 C29         4.0130    7.4550   -1.3450 c         1 MOL      0.658177
     83 N8          3.9410    7.2460   -2.6390 n         1 MOL     -0.790020
     84 O15         3.5930    8.5600   -0.8980 o         1 MOL     -0.596415
     85 H33         4.6180    2.9490    0.4010 hn        1 MOL      0.277961
     86 H34         3.3080    5.1440    1.8620 h1        1 MOL      0.071005
     87 H35         2.3480    5.9020   -0.1650 hc        1 MOL      0.042088
     88 H36         3.0970    4.5890   -1.0170 hc        1 MOL      0.042088
     89 H37         5.2590    5.6860   -0.9050 hc        1 MOL      0.140866
     90 H38         4.8990    6.7220    0.4590 hc        1 MOL      0.140866
     91 H39         4.2160    6.3950   -3.0910 hn        1 MOL      0.361002
     92 H40         3.4140    7.8740   -3.2240 hn        1 MOL      0.361002
     93 N9          1.2690    3.7250    1.9350 n         1 MOL     -0.456987
     94 C30         0.0900    2.8700    1.9950 c3        1 MOL      0.062490
     95 C31        -0.9200    3.2900    0.9560 c         1 MOL      0.595457
     96 O16        -1.2960    4.4780    0.8940 o         1 MOL     -0.586968
     97 C32        -0.5850    3.0420    3.3860 c3        1 MOL      0.218648
     98 C33        -2.1130    2.7080    3.5540 c3        1 MOL     -0.346716
     99 C34         0.2220    2.2490    4.4990 c3        1 MOL     -0.346716
    100 H41         1.3970    4.5140    2.5600 hn        1 MOL      0.288999
    101 H42         0.3520    1.8140    1.8860 h1        1 MOL      0.023156
    102 H43        -0.5340    4.1210    3.5560 hc        1 MOL     -0.026186
    103 H44        -2.4960    2.7390    4.5780 hc        1 MOL      0.083071
    104 H45        -2.6510    3.4520    2.9610 hc        1 MOL      0.083071
    105 H46        -2.2260    1.6490    3.3210 hc        1 MOL      0.083071
    106 H47         1.2790    2.3350    4.2490 hc        1 MOL      0.083071
    107 H48         0.0830    2.7150    5.4740 hc        1 MOL      0.083071
    108 H49        -0.1990    1.2580    4.6900 hc        1 MOL      0.083071
    109 N10        -1.3480    2.2580    0.1420 n         1 MOL     -0.422611
    110 C35        -2.4750    2.3800   -0.7900 c3        1 MOL      0.382760
    111 C36        -3.8460    2.1340   -0.1550 c         1 MOL      0.169845
    112 O17        -3.9020    1.3440    0.7780 o         1 MOL     -0.299340
    113 C37        -2.1290    1.5180   -1.9980 c3        1 MOL     -0.150706
    114 C38        -3.1110    1.5220   -3.2250 c         1 MOL      0.581840
    115 N11        -3.3200    2.5770   -3.9600 n         1 MOL     -0.721034
    116 O18        -3.8740    0.6350   -3.3350 o         1 MOL     -0.448061
    117 H50        -0.8960    1.3520    0.1890 hn        1 MOL      0.180256
    118 H51        -2.5270    3.4150   -1.1300 h1        1 MOL     -0.053506
    119 H52        -2.1260    0.4880   -1.6570 hc        1 MOL      0.059468
    120 H53        -1.1490    1.8510   -2.3480 hc        1 MOL      0.059468
    121 H54        -2.8190    3.4390   -3.7810 hn        1 MOL      0.334329
    122 H55        -4.1560    2.5880   -4.5260 hn        1 MOL      0.334329
    123 N12        -4.9540    2.5870   -0.7650 n         1 MOL     -0.279953
    124 C39        -6.2890    2.2470   -0.3840 c3        1 MOL      0.087284
    125 C40        -6.4870    0.7080   -0.3010 c         1 MOL      0.826160
    126 O19        -7.2690    0.3260    0.5590 o         1 MOL     -0.584487
    127 C41        -7.3220    2.8890   -1.3900 c3        1 MOL     -0.091220
    128 C42        -8.7450    2.6900   -0.9490 ca        1 MOL     -0.050593
    129 C43        -9.4070    3.6940   -0.2340 ca        1 MOL     -0.116958
    130 C44        -9.4010    1.4920   -1.2510 ca        1 MOL     -0.116958
    131 C45       -10.7440    3.5200    0.2380 ca        1 MOL     -0.288511
    132 C46       -10.7670    1.2960   -0.8030 ca        1 MOL     -0.288511
    133 C47       -11.4270    2.3120   -0.1000 ca        1 MOL      0.406008
    134 O20       -12.6750    2.1960    0.2940 oh        1 MOL     -0.604867
    135 H56        -4.8980    3.2310   -1.5460 hn        1 MOL      0.191250
    136 H57        -6.4460    2.5710    0.6410 h1        1 MOL      0.018893
    137 H58        -7.2310    2.4740   -2.3900 hc        1 MOL      0.049228
    138 H59        -7.1210    3.9590   -1.5000 hc        1 MOL      0.049228
    139 H60        -8.7980    4.5200    0.0980 ha        1 MOL      0.099134
    140 H61        -8.8850    0.7060   -1.7970 ha        1 MOL      0.099134
    141 H62       -11.1830    4.2930    0.8490 ha        1 MOL      0.143609
    142 H63       -11.2550    0.3860   -1.0990 ha        1 MOL      0.143609
    143 H64       -13.1270    1.4140   -0.0450 ho        1 MOL      0.429957
    144 N13        -5.7290   -0.1290   -1.0280 n         1 MOL     -0.482278
    145 C48        -5.8950   -1.5940   -1.0140 c3        1 MOL      0.111112
    146 C49        -5.2940   -2.2960    0.2640 c         1 MOL      0.170717
    147 O21        -5.6630   -3.3780    0.6620 o         1 MOL     -0.456516
    148 C50        -5.4710   -2.2120   -2.3010 c3        1 MOL      0.015041
    149 C51        -6.1720   -1.7500   -3.5600 c3        1 MOL     -0.093401
    150 C52        -7.6390   -2.1840   -3.4840 c         1 MOL      0.563372
    151 O22        -8.5790   -1.4670   -2.9650 o         1 MOL     -0.669321
    152 O23        -7.8950   -3.2830   -3.9830 o         1 MOL     -0.669321
    153 H65        -5.1330    0.2730   -1.7350 hn        1 MOL      0.125967
    154 H66        -6.9820   -1.7130   -0.9340 h1        1 MOL      0.112848
    155 H67        -5.5760   -3.2820   -2.1490 hc        1 MOL      0.017010
    156 H68        -4.4150   -1.9590   -2.4600 hc        1 MOL      0.017010
    157 H69        -5.6830   -2.1970   -4.4270 hc        1 MOL     -0.000171
    158 H70        -6.0480   -0.6700   -3.6710 hc        1 MOL     -0.000171
    159 N14        -4.2600   -1.6040    0.7570 n         1 MOL      0.026320
    160 C53        -3.3870   -1.8880    1.9060 c3        1 MOL     -0.040548
    161 C54        -4.0090   -1.6050    3.2760 c         1 MOL      0.374579
    162 O24        -3.9280   -2.5010    4.1990 o         1 MOL     -0.549521
    163 C55        -2.0810   -1.1660    1.8230 c3        1 MOL     -0.150537
    164 C56        -1.3770   -1.8120    0.5670 c3        1 MOL     -0.125717
    165 C57        -0.0130   -1.1680    0.2430 c         1 MOL      0.655903
    166 O25         0.8240   -1.7980   -0.4840 o         1 MOL     -0.648290
    167 O26         0.2890   -0.0530    0.7360 o         1 MOL     -0.648290
    168 H71        -4.1890   -0.6490    0.4390 hn        1 MOL      0.120154
    169 H72        -3.2190   -2.9630    1.8390 h1        1 MOL      0.074741
    170 H73        -1.6260   -1.2830    2.8050 hc        1 MOL      0.113385
    171 H74        -2.2290   -0.1010    1.6870 hc        1 MOL      0.113385
    172 H75        -2.0690   -1.8000   -0.2710 hc        1 MOL      0.009954
    173 H76        -1.2090   -2.8400    0.9080 hc        1 MOL      0.009954
    174 N15        -4.6340   -0.4010    3.4170 n         1 MOL     -0.022488
    175 C58        -5.1210    0.1900    4.7200 c3        1 MOL     -0.257524
    176 H77        -5.4510    1.2150    4.5530 h1        1 MOL      0.102902
    177 H78        -5.9540   -0.4020    5.1000 h1        1 MOL      0.102902
    178 H79        -4.3090    0.1830    5.4480 h1        1 MOL      0.102902
    179 H80        -4.6730    0.1170    2.5550 hn        1 MOL      0.002310
    180 Ca1         2.9450   -0.0980    0.0540 Ca        1 MOL      1.682083
    181 O27         2.1640    0.1100    2.6310 oh        1 MOL     -0.875371
    182 H81         2.1040   -0.3770    3.4500 ho        1 MOL      0.424496
    183 H82         1.2750    0.1030    2.2720 ho        1 MOL      0.424496
    184 O28         1.6980    0.9660   -2.1900 oh        1 MOL     -0.875371
    185 H83         2.3100    1.6680   -2.3840 ho        1 MOL      0.424496
    186 H84         1.9260    0.2690   -2.8060 ho        1 MOL      0.424496
    187 O29         5.2500   -0.2870    1.6310 oh        1 MOL     -0.875371
    188 H85         5.5100   -1.2010    1.7240 ho        1 MOL      0.424496
    189 H86         5.4370    0.1060    2.4820 ho        1 MOL      0.424496
@<TRIPOS>BOND
     1    1    2 1   
     2    1    4 1   
     3    1    5 1   
     4    1    6 1   
     5    2    3 2   
     6    2    7 1   
     7    7    8 1   
     8    7   15 1   
     9    8    9 1   
    10    8   11 1   
    11    8   16 1   
    12    9   10 2   
    13    9   19 1   
    14   11   12 1   
    15   11   17 1   
    16   11   18 1   
    17   12   13 1   
    18   12   14 1   
    19   19   20 1   
    20   19   27 1   
    21   20   21 1   
    22   20   23 1   
    23   20   28 1   
    24   21   22 2   
    25   21   38 1   
    26   23   24 1   
    27   23   25 1   
    28   23   29 1   
    29   24   26 1   
    30   24   30 1   
    31   24   31 1   
    32   25   32 1   
    33   25   33 1   
    34   25   34 1   
    35   26   35 1   
    36   26   36 1   
    37   26   37 1   
    38   38   39 1   
    39   38   46 1   
    40   39   40 1   
    41   39   42 1   
    42   39   47 1   
    43   40   41 2   
    44   40   50 1   
    45   42   43 1   
    46   42   48 1   
    47   42   49 1   
    48   43   44 1   
    49   43   45 1   
    50   50   51 1   
    51   50   54 1   
    52   51   52 1   
    53   51   55 1   
    54   51   56 1   
    55   52   53 2   
    56   52   57 1   
    57   57   58 1   
    58   57   65 1   
    59   58   59 1   
    60   58   61 1   
    61   58   66 1   
    62   59   60 2   
    63   59   69 1   
    64   61   62 1   
    65   61   67 1   
    66   61   68 1   
    67   62   63 1   
    68   62   64 1   
    69   69   70 1   
    70   69   73 1   
    71   70   71 1   
    72   70   74 1   
    73   70   75 1   
    74   71   72 2   
    75   71   76 1   
    76   76   77 1   
    77   76   85 1   
    78   77   78 1   
    79   77   80 1   
    80   77   86 1   
    81   78   79 2   
    82   78   93 1   
    83   80   81 1   
    84   80   87 1   
    85   80   88 1   
    86   81   82 1   
    87   81   89 1   
    88   81   90 1   
    89   82   83 1   
    90   82   84 2   
    91   83   91 1   
    92   83   92 1   
    93   93   94 1   
    94   93  100 1   
    95   94   95 1   
    96   94   97 1   
    97   94  101 1   
    98   95   96 2   
    99   95  109 1   
   100   97   98 1   
   101   97   99 1   
   102   97  102 1   
   103   98  103 1   
   104   98  104 1   
   105   98  105 1   
   106   99  106 1   
   107   99  107 1   
   108   99  108 1   
   109  109  110 1   
   110  109  117 1   
   111  110  111 1   
   112  110  113 1   
   113  110  118 1   
   114  111  112 2   
   115  111  123 1   
   116  113  114 1   
   117  113  119 1   
   118  113  120 1   
   119  114  115 1   
   120  114  116 2   
   121  115  121 1   
   122  115  122 1   
   123  123  124 1   
   124  123  135 1   
   125  124  125 1   
   126  124  127 1   
   127  124  136 1   
   128  125  126 2   
   129  125  144 1   
   130  127  128 1   
   131  127  137 1   
   132  127  138 1   
   133  128  129 ar  
   134  128  130 ar  
   135  129  131 ar  
   136  129  139 1   
   137  130  132 ar  
   138  130  140 1   
   139  131  133 ar  
   140  131  141 1   
   141  132  133 ar  
   142  132  142 1   
   143  133  134 1   
   144  134  143 1   
   145  144  145 1   
   146  144  153 1   
   147  145  146 1   
   148  145  148 1   
   149  145  154 1   
   150  146  147 2   
   151  146  159 1   
   152  148  149 1   
   153  148  155 1   
   154  148  156 1   
   155  149  150 1   
   156  149  157 1   
   157  149  158 1   
   158  150  151 1   
   159  150  152 1   
   160  159  160 1   
   161  159  168 1   
   162  160  161 1   
   163  160  163 1   
   164  160  169 1   
   165  161  162 2   
   166  161  174 1   
   167  163  164 1   
   168  163  170 1   
   169  163  171 1   
   170  164  165 1   
   171  164  172 1   
   172  164  173 1   
   173  165  166 1   
   174  165  167 1   
   175  174  175 1   
   176  174  179 1   
   177  175  176 1   
   178  175  177 1   
   179  175  178 1   
   180  181  182 1   
   181  181  183 1   
   182  184  185 1   
   183  184  186 1   
   184  187  188 1   
   185  187  189 1   
@<TRIPOS>SUBSTRUCTURE
     1 MOL         1 TEMP              0 ****  ****    0 ROOT
