@<TRIPOS>MOLECULE
MOL
  189   185     1     0     0
SMALL
resp


@<TRIPOS>ATOM
      1 C1         -0.0870    2.2720    6.1950 c3        1 MOL     -0.273191
      2 C2         -0.5080    1.8170    4.7320 c         1 MOL      0.641136
      3 O1          0.3970    1.5440    3.9410 o         1 MOL     -0.565821
      4 H1         -0.6020    3.1990    6.4490 hc        1 MOL      0.078836
      5 H2         -0.3610    1.4970    6.9110 hc        1 MOL      0.078836
      6 H3          0.9900    2.4350    6.2290 hc        1 MOL      0.078836
      7 N1         -1.8230    1.6870    4.3630 n         1 MOL     -0.623460
      8 C3         -2.3050    1.4720    3.0340 c3        1 MOL      0.228554
      9 C4         -2.7350    2.8220    2.4220 c         1 MOL      0.475726
     10 O2         -3.7580    3.4070    2.7580 o         1 MOL     -0.534899
     11 C5         -3.3910    0.4860    3.1610 c3        1 MOL     -0.217432
     12 C6         -4.0220    0.0420    1.8160 c         1 MOL      0.776473
     13 O3         -3.4060    0.3010    0.7180 o         1 MOL     -0.723579
     14 O4         -5.1500   -0.5700    1.8410 o         1 MOL     -0.723579
     15 H4         -2.4860    1.7700    5.1220 hn        1 MOL      0.322291
     16 H5         -1.5200    1.0210    2.4280 h1        1 MOL      0.030445
     17 H6         -4.1820    0.9980    3.7070 hc        1 MOL      0.053697
     18 H7         -3.0910   -0.3910    3.7290 hc        1 MOL      0.053697
     19 N2         -1.9380    3.2750    1.4070 n         1 MOL     -0.345079
     20 C7         -2.0070    4.7140    0.8690 c3        1 MOL      0.007490
     21 C8         -2.9490    4.8580   -0.3060 c         1 MOL      0.575591
     22 O5         -3.4730    5.9850   -0.5650 o         1 MOL     -0.575056
     23 C9         -0.5880    5.1510    0.5720 c3        1 MOL      0.158559
     24 C10        -0.5080    6.6180    0.0860 c3        1 MOL     -0.336279
     25 C11        -1.2200    7.6210    0.9600 c3        1 MOL      0.024454
     26 C12        -1.0380    9.1190    0.4690 c3        1 MOL      0.124451
     27 N3         -1.6870   10.0590    1.4160 n4        1 MOL     -0.486593
     28 H8         -1.1710    2.6880    1.1130 hn        1 MOL      0.191698
     29 H9         -2.4080    5.3150    1.6840 h1        1 MOL      0.074715
     30 H10        -0.0080    4.6070   -0.1610 hc        1 MOL      0.012798
     31 H11        -0.0560    5.1280    1.5230 hc        1 MOL      0.012798
     32 H12        -0.8610    6.6210   -0.9400 hc        1 MOL      0.098793
     33 H13         0.5540    6.7990   -0.0510 hc        1 MOL      0.098793
     34 H14        -0.8110    7.5520    1.9740 hc        1 MOL      0.025529
     35 H15        -2.2770    7.3720    1.0420 hc        1 MOL      0.025529
     36 H16        -1.4900    9.2670   -0.5100 hx        1 MOL      0.059011
     37 H17         0.0240    9.3400    0.3730 hx        1 MOL      0.059011
     38 H18        -1.7460   10.9580    0.9500 hn        1 MOL      0.361077
     39 H19        -2.6670    9.8640    1.5320 hn        1 MOL      0.361077
     40 H20        -1.1420   10.1190    2.2650 hn        1 MOL      0.361077
     41 N4         -3.3000    3.7560   -0.9970 n         1 MOL     -0.584437
     42 C13        -4.2510    3.6330   -2.1580 c3        1 MOL      0.131959
     43 C14        -5.4340    2.6240   -1.8120 c         1 MOL      0.403793
     44 O6         -6.3170    2.5230   -2.6930 o         1 MOL     -0.492554
     45 C15        -3.4290    3.4290   -3.4460 c3        1 MOL     -0.207969
     46 C16        -2.4800    2.2390   -3.3280 c         1 MOL      0.947846
     47 O7         -2.5890    1.3950   -2.3900 o         1 MOL     -0.816507
     48 O8         -1.4420    2.2290   -4.1040 o         1 MOL     -0.816507
     49 H21        -2.8090    2.8810   -0.8570 hn        1 MOL      0.320326
     50 H22        -4.7470    4.6020   -2.2580 h1        1 MOL      0.071535
     51 H23        -2.9210    4.3380   -3.7650 hc        1 MOL      0.055878
     52 H24        -4.1350    3.2180   -4.2480 hc        1 MOL      0.055878
     53 N5         -5.5250    1.9170   -0.6430 n         1 MOL     -0.062818
     54 C17        -6.7630    1.2400   -0.2560 c3        1 MOL     -0.472560
     55 C18        -7.1880    0.0740   -1.0880 c         1 MOL      0.739038
     56 O9         -8.0680    0.1250   -1.9500 o         1 MOL     -0.575121
     57 H25        -4.7980    1.9360    0.0580 hn        1 MOL      0.194887
     58 H26        -7.5770    1.9670   -0.2290 h1        1 MOL      0.153837
     59 H27        -6.6730    0.9070    0.7890 h1        1 MOL      0.153837
     60 N6         -6.5570   -1.0530   -0.7350 n         1 MOL     -0.432144
     61 C19        -6.6750   -2.3610   -1.4720 c3        1 MOL     -0.020015
     62 C20        -6.4260   -3.4770   -0.4480 c         1 MOL      0.458737
     63 O10        -6.6980   -4.6490   -0.7400 o         1 MOL     -0.538359
     64 C21        -5.6380   -2.4870   -2.6200 c3        1 MOL      0.124062
     65 C22        -4.2710   -2.0290   -2.2450 c         1 MOL      0.565640
     66 O11        -3.7410   -2.5130   -1.2340 o         1 MOL     -0.682883
     67 O12        -3.6710   -1.1320   -2.9070 o         1 MOL     -0.682883
     68 H28        -6.0050   -1.0430    0.1020 hn        1 MOL      0.132328
     69 H29        -7.7150   -2.5070   -1.7640 h1        1 MOL      0.078326
     70 H30        -5.9120   -2.0140   -3.5650 hc        1 MOL     -0.007297
     71 H31        -5.7070   -3.5310   -2.9330 hc        1 MOL     -0.007297
     72 N7         -5.7990   -3.2150    0.7030 n         1 MOL     -0.266435
     73 C23        -5.6150   -4.2000    1.8080 c3        1 MOL     -0.160488
     74 C24        -4.3370   -4.9400    1.5590 c         1 MOL      0.543553
     75 O13        -4.1760   -6.0910    2.0480 o         1 MOL     -0.570271
     76 H32        -5.4880   -2.2840    0.9380 hn        1 MOL      0.345454
     77 H33        -6.4320   -4.9160    1.9020 h1        1 MOL      0.104611
     78 H34        -5.5800   -3.6400    2.7480 h1        1 MOL      0.104611
     79 N8         -3.3740   -4.3810    0.8160 n         1 MOL     -0.145874
     80 C25        -2.0300   -4.8490    0.7180 c3        1 MOL     -0.543748
     81 C26        -1.0340   -3.7650    0.9270 c         1 MOL      1.006620
     82 O14        -1.1920   -2.6770    0.4370 o         1 MOL     -0.792954
     83 C27        -1.8660   -5.6590   -0.5890 c3        1 MOL      0.557474
     84 C28        -2.2900   -7.1590   -0.3680 c3        1 MOL     -0.529097
     85 O15        -2.6450   -5.0920   -1.6300 oh        1 MOL     -0.613699
     86 H35        -3.5780   -3.4610    0.4790 hn        1 MOL      0.153227
     87 H36        -1.8570   -5.5800    1.5140 h1        1 MOL      0.155081
     88 H37        -0.8140   -5.6020   -0.8690 h1        1 MOL     -0.040160
     89 H38        -3.0860   -4.3620   -1.1810 ho        1 MOL      0.404072
     90 H39        -1.5910   -7.7720    0.2040 hc        1 MOL      0.137975
     91 H40        -3.2620   -7.2550    0.1080 hc        1 MOL      0.137975
     92 H41        -2.2730   -7.6400   -1.3490 hc        1 MOL      0.137975
     93 N9          0.0810   -4.1410    1.5830 n         1 MOL     -0.765237
     94 C29         1.2200   -3.2730    1.7520 c3        1 MOL      0.302499
     95 C30         2.3290   -3.6420    0.6750 c         1 MOL      0.404298
     96 O16         2.7060   -4.7960    0.6050 o         1 MOL     -0.525914
     97 C31         1.8090   -3.2750    3.2270 c3        1 MOL      0.020290
     98 C32         0.6960   -3.2690    4.3540 c3        1 MOL     -0.231334
     99 C33         2.6770   -2.0620    3.5850 c3        1 MOL     -0.572926
    100 C34        -0.3400   -2.1310    4.3730 c3        1 MOL     -0.112939
    101 H42         0.0630   -5.0040    2.1010 hn        1 MOL      0.359773
    102 H43         0.8700   -2.2520    1.6260 h1        1 MOL      0.098303
    103 H44         2.4940   -4.1230    3.3010 hc        1 MOL      0.030581
    104 H45         1.1740   -3.2730    5.3340 hc        1 MOL      0.079513
    105 H46         0.2080   -4.2270    4.1740 hc        1 MOL      0.079513
    106 H47         3.6440   -2.0450    3.0930 hc        1 MOL      0.173855
    107 H48         2.1500   -1.1770    3.2200 hc        1 MOL      0.173855
    108 H49         2.8390   -1.9810    4.6560 hc        1 MOL      0.173855
    109 H50        -0.8350   -1.9950    3.4170 hc        1 MOL      0.054756
    110 H51        -1.1240   -2.2310    5.1270 hc        1 MOL      0.054756
    111 H52         0.1080   -1.1550    4.5100 hc        1 MOL      0.054756
    112 N10         2.9250   -2.5860    0.0790 n         1 MOL     -0.115340
    113 C35         3.9220   -2.6710   -1.0520 c3        1 MOL      0.025568
    114 C36         5.2490   -2.1580   -0.5280 c         1 MOL      0.328229
    115 O17         5.2260   -1.6470    0.5940 o         1 MOL     -0.360083
    116 C37         3.5030   -1.9900   -2.3730 c3        1 MOL      0.223278
    117 C38         2.3510   -2.7260   -2.9990 c3        1 MOL     -0.429695
    118 O18         2.9770   -0.7370   -2.1160 oh        1 MOL     -0.637100
    119 H53         2.3970   -1.7190    0.0480 hn        1 MOL      0.073599
    120 H54         4.1340   -3.7090   -1.2950 h1        1 MOL      0.049715
    121 H55         4.3240   -1.9930   -3.0790 h1        1 MOL      0.028705
    122 H56         2.2070   -0.6770   -1.5470 ho        1 MOL      0.451662
    123 H57         2.7800   -3.5370   -3.5870 hc        1 MOL      0.116751
    124 H58         1.6880   -3.1490   -2.2370 hc        1 MOL      0.116751
    125 H59         1.6870   -2.0760   -3.5670 hc        1 MOL      0.116751
    126 N11         6.3720   -2.2170   -1.2150 n         1 MOL     -0.209447
    127 C39         7.6640   -1.7140   -0.7100 c3        1 MOL     -0.242608
    128 C40         7.6870   -0.2370   -0.3490 c         1 MOL      0.518236
    129 O19         8.0050    0.0120    0.7990 o         1 MOL     -0.502165
    130 C41         8.8800   -1.9780   -1.6270 c3        1 MOL      0.230920
    131 C42         9.1320   -3.4290   -1.9450 c3        1 MOL     -0.321769
    132 O20         8.6890   -1.3960   -2.8230 oh        1 MOL     -0.611952
    133 H60         6.3460   -2.7020   -2.0930 hn        1 MOL      0.248055
    134 H61         7.7280   -2.2300    0.2550 h1        1 MOL      0.165407
    135 H62         9.7780   -1.6770   -1.0930 h1        1 MOL      0.062682
    136 H63         9.4990   -1.5420   -3.3000 ho        1 MOL      0.423361
    137 H64         9.0940   -4.0410   -1.0380 hc        1 MOL      0.092153
    138 H65         8.3440   -3.8720   -2.5440 hc        1 MOL      0.092153
    139 H66        10.0510   -3.6610   -2.4650 hc        1 MOL      0.092153
    140 N12         7.0680    0.6390   -1.1600 n         1 MOL     -0.314079
    141 C43         6.8590    2.0980   -1.0180 c3        1 MOL      0.030973
    142 C44         5.9410    2.4130    0.1890 c         1 MOL      0.314477
    143 O21         6.1980    3.4510    0.8540 o         1 MOL     -0.520379
    144 C45         6.2800    2.6870   -2.2830 c3        1 MOL     -0.305975
    145 C46         4.9000    2.2170   -2.7170 c3        1 MOL      0.216025
    146 C47         4.3870    2.9330   -3.9760 c3        1 MOL     -0.269497
    147 C48         2.9170    2.5890   -4.2010 c3        1 MOL      0.004887
    148 N13         2.6900    1.1320   -4.5080 n4        1 MOL     -0.479663
    149 H67         6.7870    0.2300   -2.0420 hn        1 MOL      0.219305
    150 H68         7.8580    2.5210   -0.8550 h1        1 MOL      0.128030
    151 H69         6.9360    2.3490   -3.0990 hc        1 MOL      0.089858
    152 H70         6.2720    3.7770   -2.2920 hc        1 MOL      0.089858
    153 H71         4.2250    2.5200   -1.9150 hc        1 MOL      0.008563
    154 H72         4.8960    1.1250   -2.7640 hc        1 MOL      0.008563
    155 H73         5.0310    2.6990   -4.8190 hc        1 MOL      0.099721
    156 H74         4.3920    4.0050   -3.7610 hc        1 MOL      0.099721
    157 H75         2.6950    3.2210   -5.0670 hx        1 MOL      0.121664
    158 H76         2.3020    3.0290   -3.4220 hx        1 MOL      0.121664
    159 H77         2.8050    0.6210   -3.6500 hn        1 MOL      0.345144
    160 H78         1.7440    1.1090   -4.8640 hn        1 MOL      0.345144
    161 H79         3.2930    0.7950   -5.2390 hn        1 MOL      0.345144
    162 N14         5.0930    1.5070    0.6070 n         1 MOL     -0.043329
    163 C49         4.1900    1.6470    1.7600 c3        1 MOL     -0.146088
    164 C50         4.6490    1.0410    3.0600 c         1 MOL      0.488021
    165 O22         4.2030    1.4410    4.1020 o         1 MOL     -0.553526
    166 C51         2.9140    0.8520    1.3450 c3        1 MOL      0.199315
    167 C52         2.1010    1.5100    0.2600 c3        1 MOL      0.056914
    168 C53         0.7950    0.7390   -0.0130 c         1 MOL      0.564720
    169 O23         0.8920   -0.4300   -0.4340 o         1 MOL     -0.641876
    170 O24        -0.3110    1.3240   -0.0880 o         1 MOL     -0.641876
    171 H80         5.0500    0.6700    0.0560 hn        1 MOL      0.120793
    172 H81         3.9810    2.6880    1.9900 h1        1 MOL      0.115373
    173 H82         2.2360    0.7510    2.1920 hc        1 MOL     -0.036565
    174 H83         3.2380   -0.1340    1.0220 hc        1 MOL     -0.036565
    175 H84         2.7240    1.6220   -0.6350 hc        1 MOL     -0.053096
    176 H85         1.8240    2.4940    0.6390 hc        1 MOL     -0.053096
    177 N15         5.5660    0.1150    2.9500 n         1 MOL     -0.075639
    178 C54         6.3970   -0.4670    4.0520 c3        1 MOL     -0.428686
    179 H86         6.4240   -1.5520    3.9520 h1        1 MOL      0.146421
    180 H87         7.4110   -0.0720    3.9910 h1        1 MOL      0.146421
    181 H88         5.9610   -0.2030    5.0150 h1        1 MOL      0.146421
    182 H89         5.7920   -0.2430    2.0310 hn        1 MOL      0.130650
    183 Ca1        -1.6900   -0.6650   -1.1710 Ca        1 MOL      1.799473
    184 O25        -0.2190    0.0690   -3.3770 oh        1 MOL     -0.872332
    185 H90        -0.6360    0.8910   -3.6500 ho        1 MOL      0.400662
    186 H91         0.1430   -0.3010   -4.1750 ho        1 MOL      0.400662
    187 O26        -0.8940   -3.0840   -2.6800 oh        1 MOL     -0.872332
    188 H92        -1.6140   -3.7000   -2.5730 ho        1 MOL      0.400662
    189 H93        -0.4060   -3.4070   -3.4430 ho        1 MOL      0.400662
@<TRIPOS>BOND
     1    1    2 1   
     2    1    4 1   
     3    1    5 1   
     4    1    6 1   
     5    2    3 2   
     6    2    7 1   
     7    7    8 1   
     8    7   15 1   
     9    8    9 1   
    10    8   11 1   
    11    8   16 1   
    12    9   10 2   
    13    9   19 1   
    14   11   12 1   
    15   11   17 1   
    16   11   18 1   
    17   12   13 1   
    18   12   14 1   
    19   19   20 1   
    20   19   28 1   
    21   20   21 1   
    22   20   23 1   
    23   20   29 1   
    24   21   22 2   
    25   21   41 1   
    26   23   24 1   
    27   23   30 1   
    28   23   31 1   
    29   24   25 1   
    30   24   32 1   
    31   24   33 1   
    32   25   26 1   
    33   25   34 1   
    34   25   35 1   
    35   26   27 1   
    36   26   36 1   
    37   26   37 1   
    38   27   38 1   
    39   27   39 1   
    40   27   40 1   
    41   41   42 1   
    42   41   49 1   
    43   42   43 1   
    44   42   45 1   
    45   42   50 1   
    46   43   44 2   
    47   43   53 1   
    48   45   46 1   
    49   45   51 1   
    50   45   52 1   
    51   46   47 1   
    52   46   48 1   
    53   53   54 1   
    54   53   57 1   
    55   54   55 1   
    56   54   58 1   
    57   54   59 1   
    58   55   56 2   
    59   55   60 1   
    60   60   61 1   
    61   60   68 1   
    62   61   62 1   
    63   61   64 1   
    64   61   69 1   
    65   62   63 2   
    66   62   72 1   
    67   64   65 1   
    68   64   70 1   
    69   64   71 1   
    70   65   66 1   
    71   65   67 1   
    72   72   73 1   
    73   72   76 1   
    74   73   74 1   
    75   73   77 1   
    76   73   78 1   
    77   74   75 2   
    78   74   79 1   
    79   79   80 1   
    80   79   86 1   
    81   80   81 1   
    82   80   83 1   
    83   80   87 1   
    84   81   82 2   
    85   81   93 1   
    86   83   84 1   
    87   83   85 1   
    88   83   88 1   
    89   84   90 1   
    90   84   91 1   
    91   84   92 1   
    92   85   89 1   
    93   93   94 1   
    94   93  101 1   
    95   94   95 1   
    96   94   97 1   
    97   94  102 1   
    98   95   96 2   
    99   95  112 1   
   100   97   98 1   
   101   97   99 1   
   102   97  103 1   
   103   98  100 1   
   104   98  104 1   
   105   98  105 1   
   106   99  106 1   
   107   99  107 1   
   108   99  108 1   
   109  100  109 1   
   110  100  110 1   
   111  100  111 1   
   112  112  113 1   
   113  112  119 1   
   114  113  114 1   
   115  113  116 1   
   116  113  120 1   
   117  114  115 2   
   118  114  126 1   
   119  116  117 1   
   120  116  118 1   
   121  116  121 1   
   122  117  123 1   
   123  117  124 1   
   124  117  125 1   
   125  118  122 1   
   126  126  127 1   
   127  126  133 1   
   128  127  128 1   
   129  127  130 1   
   130  127  134 1   
   131  128  129 2   
   132  128  140 1   
   133  130  131 1   
   134  130  132 1   
   135  130  135 1   
   136  131  137 1   
   137  131  138 1   
   138  131  139 1   
   139  132  136 1   
   140  140  141 1   
   141  140  149 1   
   142  141  142 1   
   143  141  144 1   
   144  141  150 1   
   145  142  143 2   
   146  142  162 1   
   147  144  145 1   
   148  144  151 1   
   149  144  152 1   
   150  145  146 1   
   151  145  153 1   
   152  145  154 1   
   153  146  147 1   
   154  146  155 1   
   155  146  156 1   
   156  147  148 1   
   157  147  157 1   
   158  147  158 1   
   159  148  159 1   
   160  148  160 1   
   161  148  161 1   
   162  162  163 1   
   163  162  171 1   
   164  163  164 1   
   165  163  166 1   
   166  163  172 1   
   167  164  165 2   
   168  164  177 1   
   169  166  167 1   
   170  166  173 1   
   171  166  174 1   
   172  167  168 1   
   173  167  175 1   
   174  167  176 1   
   175  168  169 1   
   176  168  170 1   
   177  177  178 1   
   178  177  182 1   
   179  178  179 1   
   180  178  180 1   
   181  178  181 1   
   182  184  185 1   
   183  184  186 1   
   184  187  188 1   
   185  187  189 1   
@<TRIPOS>SUBSTRUCTURE
     1 MOL         1 TEMP              0 ****  ****    0 ROOT
