@<TRIPOS>MOLECULE
MOL
  179   176     1     0     0
SMALL
resp


@<TRIPOS>ATOM
      1 C1          2.3360    2.4630    5.0850 c3        1 MOL     -0.351923
      2 C2          1.6470    2.3640    3.7370 c         1 MOL      0.759256
      3 O1          2.2720    2.3310    2.7320 o         1 MOL     -0.628360
      4 H1          1.7720    3.1360    5.7320 hc        1 MOL      0.081842
      5 H2          2.3840    1.4750    5.5440 hc        1 MOL      0.081842
      6 H3          3.3460    2.8510    4.9500 hc        1 MOL      0.081842
      7 N1          0.3880    2.2830    3.7490 n         1 MOL     -0.428917
      8 C3         -0.4360    2.2070    2.5350 c3        1 MOL      0.132760
      9 C4         -0.3360    3.5920    1.8820 c         1 MOL      0.174252
     10 O2         -1.0180    4.5740    2.3000 o         1 MOL     -0.516869
     11 C5         -1.8540    1.7560    2.8820 c3        1 MOL     -0.013814
     12 C6         -2.7320    1.8200    1.5860 c         1 MOL      0.690967
     13 O3         -2.2680    2.0150    0.4090 o         1 MOL     -0.672733
     14 O4         -3.9840    1.6380    1.8080 o         1 MOL     -0.672733
     15 H4         -0.0510    2.0940    4.6460 hn        1 MOL      0.265287
     16 H5         -0.0550    1.4520    1.8400 h1        1 MOL     -0.030283
     17 H6         -2.3540    2.3770    3.6230 hc        1 MOL      0.011254
     18 H7         -1.8930    0.7120    3.2090 hc        1 MOL      0.011254
     19 N2          0.4910    3.7450    0.8750 n         1 MOL      0.184641
     20 C7          0.9680    4.9990    0.2070 c3        1 MOL     -0.079926
     21 C8          0.0440    5.6510   -0.8140 c         1 MOL      0.649655
     22 O5          0.4540    6.6590   -1.4090 o         1 MOL     -0.575679
     23 C9          2.3760    4.7980   -0.3710 c3        1 MOL     -0.152695
     24 C10         3.3920    5.1890    0.7120 c3        1 MOL      0.084545
     25 C11         4.7970    4.8990    0.2930 c3        1 MOL     -0.037132
     26 C12         5.6420    5.5870    1.3640 c3        1 MOL     -0.000657
     27 N3          5.8490    6.9590    1.0040 n4        1 MOL     -0.328686
     28 H8          0.9270    2.8870    0.5720 hn        1 MOL      0.040984
     29 H9          1.0670    5.7530    0.9970 h1        1 MOL      0.047258
     30 H10         2.5630    5.4760   -1.2130 hc        1 MOL      0.062719
     31 H11         2.4680    3.7760   -0.7240 hc        1 MOL      0.062719
     32 H12         3.1310    4.6380    1.6250 hc        1 MOL     -0.010668
     33 H13         3.3100    6.2180    1.0570 hc        1 MOL     -0.010668
     34 H14         4.9690    5.3510   -0.6860 hc        1 MOL      0.050727
     35 H15         4.9680    3.8240    0.2660 hc        1 MOL      0.050727
     36 H16         6.6540    5.2060    1.4550 hx        1 MOL      0.096267
     37 H17         5.2230    5.4740    2.3640 hx        1 MOL      0.096267
     38 H18         4.9510    7.4070    0.8560 hn        1 MOL      0.314760
     39 H19         6.2080    7.4210    1.8300 hn        1 MOL      0.314760
     40 H20         6.4120    7.1010    0.1760 hn        1 MOL      0.314760
     41 N4         -1.2060    5.0980   -0.8320 n         1 MOL     -0.443283
     42 C13        -2.2930    5.5620   -1.7200 c3        1 MOL      0.045649
     43 C14        -3.6580    5.2500   -1.2150 c         1 MOL      0.344253
     44 O6         -4.6460    5.7730   -1.8080 o         1 MOL     -0.510804
     45 C15        -2.1540    4.8470   -3.1110 c3        1 MOL     -0.049281
     46 C16        -1.7180    3.3650   -3.1840 c         1 MOL      0.754383
     47 O7         -1.7160    2.5850   -2.2030 o         1 MOL     -0.722274
     48 O8         -1.4510    2.9170   -4.3050 o         1 MOL     -0.722274
     49 H21        -1.3850    4.2220   -0.3650 hn        1 MOL      0.048666
     50 H22        -2.2780    6.6300   -1.9300 h1        1 MOL      0.100882
     51 H23        -1.4140    5.4680   -3.6310 hc        1 MOL      0.013815
     52 H24        -3.0830    4.9860   -3.6610 hc        1 MOL      0.013815
     53 N5         -3.7300    4.4960   -0.1270 n         1 MOL     -0.033799
     54 C17        -5.0660    4.3470    0.6040 c3        1 MOL     -0.324313
     55 C18        -5.9760    3.5730   -0.2550 c         1 MOL      0.710242
     56 O9         -7.0090    4.0250   -0.7240 o         1 MOL     -0.558293
     57 H25        -2.8590    4.2550    0.3300 hn        1 MOL      0.225509
     58 H26        -5.5300    5.2980    0.8410 h1        1 MOL      0.127746
     59 H27        -4.8170    3.8210    1.5300 h1        1 MOL      0.127746
     60 N6         -5.6360    2.2420   -0.3630 n         1 MOL     -0.403735
     61 C19        -6.4530    1.2280   -1.1150 c3        1 MOL     -0.077078
     62 C20        -6.8200    0.0570   -0.2700 c         1 MOL      0.483366
     63 O10        -7.6140   -0.7590   -0.6730 o         1 MOL     -0.495143
     64 C21        -5.7660    0.8330   -2.3810 c3        1 MOL     -0.007971
     65 C22        -4.5960   -0.0910   -2.3180 c         1 MOL      0.470759
     66 N7         -4.6720   -1.1610   -3.1140 n         1 MOL     -0.663158
     67 O11        -3.6590   -0.0590   -1.4730 o         1 MOL     -0.580425
     68 H28        -4.7860    1.9160    0.0710 hn        1 MOL      0.114293
     69 H29        -7.4340    1.6320   -1.3870 h1        1 MOL      0.126742
     70 H30        -5.4000    1.6800   -2.9650 hc        1 MOL      0.061179
     71 H31        -6.4790    0.3600   -3.0600 hc        1 MOL      0.061179
     72 H32        -5.3480   -1.1090   -3.8630 hn        1 MOL      0.343914
     73 H33        -3.9780   -1.8750   -2.9730 hn        1 MOL      0.343914
     74 N8         -6.3920   -0.0360    1.0300 n         1 MOL     -0.303233
     75 C23        -6.6780   -1.1360    1.9950 c3        1 MOL     -0.197197
     76 C24        -5.5740   -2.1930    1.9910 c         1 MOL      0.612153
     77 O12        -5.7470   -3.2640    2.6260 o         1 MOL     -0.575603
     78 H34        -5.6810    0.6280    1.3040 hn        1 MOL      0.241489
     79 H35        -7.7050   -1.4980    1.9040 h1        1 MOL      0.127534
     80 H36        -6.5470   -0.7370    3.0100 h1        1 MOL      0.127534
     81 N9         -4.4120   -1.9370    1.3590 n         1 MOL     -0.428062
     82 C25        -3.3110   -2.9610    1.3430 c3        1 MOL      0.095381
     83 C26        -1.9070   -2.3370    1.3050 c         1 MOL      0.331713
     84 O13        -1.7280   -1.2440    0.7590 o         1 MOL     -0.518498
     85 C27        -3.5070   -3.9680    0.1310 c3        1 MOL      0.034386
     86 C28        -4.8130   -4.7370   -0.0250 ca        1 MOL      0.144687
     87 C29        -5.9530   -4.2000   -0.6120 ca        1 MOL     -0.217907
     88 C30        -4.7510   -6.1470    0.1210 ca        1 MOL     -0.217907
     89 C31        -7.0880   -5.0510   -0.8490 ca        1 MOL     -0.269067
     90 C32        -5.9250   -6.9260   -0.0010 ca        1 MOL     -0.269067
     91 C33        -7.1390   -6.4000   -0.3940 ca        1 MOL      0.387961
     92 O14        -8.2020   -7.1760   -0.5700 oh        1 MOL     -0.463769
     93 H37        -4.2790   -1.0890    0.8380 hn        1 MOL      0.347033
     94 H38        -3.4700   -3.5380    2.2560 h1        1 MOL      0.041514
     95 H39        -2.7350   -4.7310    0.1470 hc        1 MOL     -0.016681
     96 H40        -3.2000   -3.4710   -0.7850 hc        1 MOL     -0.016681
     97 H41        -6.0080   -3.1430   -0.8510 ha        1 MOL      0.129816
     98 H42        -3.7840   -6.5890    0.3060 ha        1 MOL      0.129816
     99 H43        -7.9490   -4.6120   -1.3240 ha        1 MOL      0.144514
    100 H44        -5.8730   -7.9700    0.2720 ha        1 MOL      0.144514
    101 H45        -7.9740   -8.0660   -0.2950 ho        1 MOL      0.341414
    102 N10        -0.9610   -3.0280    1.8660 n         1 MOL     -0.212353
    103 C34         0.4810   -2.6910    1.9410 c3        1 MOL     -0.141807
    104 C35         1.3020   -3.5690    1.0230 c         1 MOL      0.531762
    105 O15         1.2420   -4.7710    1.1530 o         1 MOL     -0.614679
    106 C36         1.0300   -2.7090    3.3610 c3        1 MOL      0.281594
    107 C37         0.2180   -1.9430    4.3830 c3        1 MOL      0.131400
    108 C38         2.5140   -2.2940    3.4530 c3        1 MOL     -0.551390
    109 C39         0.4250   -2.2600    5.8540 c3        1 MOL     -0.173389
    110 H46        -1.2540   -3.9460    2.1500 hn        1 MOL      0.239056
    111 H47         0.6320   -1.7280    1.4520 h1        1 MOL      0.081109
    112 H48         0.9820   -3.7620    3.6460 hc        1 MOL     -0.002340
    113 H49        -0.7960   -2.3320    4.2960 hc        1 MOL     -0.041815
    114 H50         0.3610   -0.8630    4.2470 hc        1 MOL     -0.041815
    115 H51         2.7170   -1.9060    4.4430 hc        1 MOL      0.125755
    116 H52         3.2120   -3.0580    3.1140 hc        1 MOL      0.125755
    117 H53         2.7200   -1.3700    2.9070 hc        1 MOL      0.125755
    118 H54         1.3530   -2.8060    6.0410 hc        1 MOL      0.039896
    119 H55         0.5570   -1.4090    6.5160 hc        1 MOL      0.039896
    120 H56        -0.3540   -2.9540    6.1770 hc        1 MOL      0.039896
    121 N11         1.9930   -3.0840    0.0650 n         1 MOL     -0.122147
    122 C40         2.8350   -3.7560   -0.9280 c3        1 MOL      0.167542
    123 C41         4.3570   -3.6680   -0.5310 c         1 MOL      0.203978
    124 O16         4.8130   -2.7420    0.0790 o         1 MOL     -0.351586
    125 C42         2.4870   -3.2550   -2.3350 c3        1 MOL      0.243149
    126 O17         1.1910   -3.5700   -2.8450 oh        1 MOL     -0.622390
    127 H57         1.9030   -2.0880   -0.0440 hn        1 MOL      0.178985
    128 H58         2.5300   -4.8100   -0.8890 h1        1 MOL      0.043826
    129 H59         3.1720   -3.7240   -3.0510 h1        1 MOL     -0.026814
    130 H60         2.5350   -2.1660   -2.3100 h1        1 MOL     -0.026814
    131 H61         1.1550   -3.1580   -3.7160 ho        1 MOL      0.411533
    132 N12         5.1910   -4.6770   -0.9030 n         1 MOL     -0.268756
    133 C43         6.6700   -4.6350   -0.6360 c3        1 MOL     -0.017079
    134 C44         7.4460   -3.4680   -1.2730 c         1 MOL      0.441843
    135 O18         8.4760   -3.0260   -0.7070 o         1 MOL     -0.498062
    136 C45         7.2800   -5.9910   -1.0960 c3        1 MOL     -0.297272
    137 H62         4.7790   -5.4680   -1.3840 hn        1 MOL      0.241603
    138 H63         6.6080   -4.5190    0.4470 h1        1 MOL      0.143655
    139 H64         8.2310   -6.2210   -0.6240 hc        1 MOL      0.104311
    140 H65         6.5950   -6.7340   -0.6900 hc        1 MOL      0.104311
    141 H66         7.3660   -6.0410   -2.1820 hc        1 MOL      0.104311
    142 N13         6.8730   -2.9740   -2.4130 n         1 MOL     -0.259547
    143 C46         7.2990   -1.7200   -3.0550 c3        1 MOL      0.057924
    144 C47         6.9110   -0.5350   -2.2370 c         1 MOL      0.351998
    145 O19         7.3890    0.5550   -2.6420 o         1 MOL     -0.522548
    146 C48         6.6400   -1.6300   -4.4050 c3        1 MOL     -0.283028
    147 H67         6.2250   -3.5080   -2.9800 hn        1 MOL      0.214101
    148 H68         8.3800   -1.8600   -3.1160 h1        1 MOL      0.109820
    149 H69         7.3770   -1.2400   -5.1020 hc        1 MOL      0.091818
    150 H70         6.3460   -2.6070   -4.7780 hc        1 MOL      0.091818
    151 H71         5.7700   -0.9750   -4.4920 hc        1 MOL      0.091818
    152 N14         6.1160   -0.6180   -1.1830 n         1 MOL     -0.075533
    153 C49         5.8970    0.4480   -0.1890 c3        1 MOL      0.007201
    154 C50         6.7170    0.2710    1.0660 c         1 MOL      0.453345
    155 O20         7.3540    1.2180    1.5710 o         1 MOL     -0.536542
    156 C51         4.4200    0.5950    0.0220 c3        1 MOL      0.248768
    157 C52         3.4170    0.5950   -1.1890 c3        1 MOL     -0.251959
    158 C53         1.8980    0.5430   -0.8470 c         1 MOL      0.905015
    159 O21         1.3850   -0.4920   -0.4870 o         1 MOL     -0.747624
    160 O22         1.1920    1.5160   -1.2450 o         1 MOL     -0.747624
    161 H72         5.7120   -1.5200   -0.9920 hn        1 MOL      0.016689
    162 H73         6.3110    1.3820   -0.5780 h1        1 MOL      0.033372
    163 H74         4.3580    1.4800    0.6570 hc        1 MOL     -0.072114
    164 H75         4.1350   -0.1730    0.7320 hc        1 MOL     -0.072114
    165 H76         3.6580   -0.2690   -1.8060 hc        1 MOL      0.044050
    166 H77         3.6850    1.5050   -1.7220 hc        1 MOL      0.044050
    167 N15         6.8710   -1.0160    1.5540 n         1 MOL     -0.185034
    168 C54         7.6660   -1.3360    2.7810 c3        1 MOL     -0.280420
    169 H78         7.2970   -0.7430    3.6180 h1        1 MOL      0.121358
    170 H79         7.5620   -2.3960    3.0150 h1        1 MOL      0.121358
    171 H80         8.7160   -1.1030    2.6060 h1        1 MOL      0.121358
    172 H81         6.3060   -1.6940    1.0640 hn        1 MOL      0.178945
    173 Ca1        -1.1350    0.3850   -1.2350 Ca        1 MOL      1.707325
    174 O23        -1.0160   -2.3080   -1.9450 oh        1 MOL     -0.825538
    175 H82        -0.2250   -2.8590   -1.9640 ho        1 MOL      0.392253
    176 H83        -1.5960   -2.7120   -2.5950 ho        1 MOL      0.392253
    177 O24        -0.6800   -0.0840   -3.7090 oh        1 MOL     -0.825538
    178 H84        -1.3460    0.3260   -4.2650 ho        1 MOL      0.392253
    179 H85        -0.1980   -0.6530   -4.3020 ho        1 MOL      0.392253
@<TRIPOS>BOND
     1    1    2 1   
     2    1    4 1   
     3    1    5 1   
     4    1    6 1   
     5    2    3 2   
     6    2    7 1   
     7    7    8 1   
     8    7   15 1   
     9    8    9 1   
    10    8   11 1   
    11    8   16 1   
    12    9   10 2   
    13    9   19 1   
    14   11   12 1   
    15   11   17 1   
    16   11   18 1   
    17   12   13 1   
    18   12   14 1   
    19   19   20 1   
    20   19   28 1   
    21   20   21 1   
    22   20   23 1   
    23   20   29 1   
    24   21   22 2   
    25   21   41 1   
    26   23   24 1   
    27   23   30 1   
    28   23   31 1   
    29   24   25 1   
    30   24   32 1   
    31   24   33 1   
    32   25   26 1   
    33   25   34 1   
    34   25   35 1   
    35   26   27 1   
    36   26   36 1   
    37   26   37 1   
    38   27   38 1   
    39   27   39 1   
    40   27   40 1   
    41   41   42 1   
    42   41   49 1   
    43   42   43 1   
    44   42   45 1   
    45   42   50 1   
    46   43   44 2   
    47   43   53 1   
    48   45   46 1   
    49   45   51 1   
    50   45   52 1   
    51   46   47 1   
    52   46   48 1   
    53   53   54 1   
    54   53   57 1   
    55   54   55 1   
    56   54   58 1   
    57   54   59 1   
    58   55   56 2   
    59   55   60 1   
    60   60   61 1   
    61   60   68 1   
    62   61   62 1   
    63   61   64 1   
    64   61   69 1   
    65   62   63 2   
    66   62   74 1   
    67   64   65 1   
    68   64   70 1   
    69   64   71 1   
    70   65   66 1   
    71   65   67 2   
    72   66   72 1   
    73   66   73 1   
    74   74   75 1   
    75   74   78 1   
    76   75   76 1   
    77   75   79 1   
    78   75   80 1   
    79   76   77 2   
    80   76   81 1   
    81   81   82 1   
    82   81   93 1   
    83   82   83 1   
    84   82   85 1   
    85   82   94 1   
    86   83   84 2   
    87   83  102 1   
    88   85   86 1   
    89   85   95 1   
    90   85   96 1   
    91   86   87 ar  
    92   86   88 ar  
    93   87   89 ar  
    94   87   97 1   
    95   88   90 ar  
    96   88   98 1   
    97   89   91 ar  
    98   89   99 1   
    99   90   91 ar  
   100   90  100 1   
   101   91   92 1   
   102   92  101 1   
   103  102  103 1   
   104  102  110 1   
   105  103  104 1   
   106  103  106 1   
   107  103  111 1   
   108  104  105 2   
   109  104  121 1   
   110  106  107 1   
   111  106  108 1   
   112  106  112 1   
   113  107  109 1   
   114  107  113 1   
   115  107  114 1   
   116  108  115 1   
   117  108  116 1   
   118  108  117 1   
   119  109  118 1   
   120  109  119 1   
   121  109  120 1   
   122  121  122 1   
   123  121  127 1   
   124  122  123 1   
   125  122  125 1   
   126  122  128 1   
   127  123  124 2   
   128  123  132 1   
   129  125  126 1   
   130  125  129 1   
   131  125  130 1   
   132  126  131 1   
   133  132  133 1   
   134  132  137 1   
   135  133  134 1   
   136  133  136 1   
   137  133  138 1   
   138  134  135 2   
   139  134  142 1   
   140  136  139 1   
   141  136  140 1   
   142  136  141 1   
   143  142  143 1   
   144  142  147 1   
   145  143  144 1   
   146  143  146 1   
   147  143  148 1   
   148  144  145 2   
   149  144  152 1   
   150  146  149 1   
   151  146  150 1   
   152  146  151 1   
   153  152  153 1   
   154  152  161 1   
   155  153  154 1   
   156  153  156 1   
   157  153  162 1   
   158  154  155 2   
   159  154  167 1   
   160  156  157 1   
   161  156  163 1   
   162  156  164 1   
   163  157  158 1   
   164  157  165 1   
   165  157  166 1   
   166  158  159 1   
   167  158  160 1   
   168  167  168 1   
   169  167  172 1   
   170  168  169 1   
   171  168  170 1   
   172  168  171 1   
   173  174  175 1   
   174  174  176 1   
   175  177  178 1   
   176  177  179 1   
@<TRIPOS>SUBSTRUCTURE
     1 MOL         1 TEMP              0 ****  ****    0 ROOT
