@<TRIPOS>MOLECULE
MOL
  183   181     1     0     0
SMALL
resp


@<TRIPOS>ATOM
      1 C1         -0.3460    0.6230    6.2800 c3        1 MOL     -0.332397
      2 C2         -0.8430    1.1110    4.9130 c         1 MOL      0.727542
      3 O1         -0.1540    1.9510    4.3160 o         1 MOL     -0.589582
      4 H1          0.6420    0.1790    6.1690 hc        1 MOL      0.076455
      5 H2         -0.2900    1.4660    6.9690 hc        1 MOL      0.076455
      6 H3         -1.0380   -0.1220    6.6730 hc        1 MOL      0.076455
      7 N1         -1.8940    0.5480    4.3880 n         1 MOL     -0.577819
      8 C3         -2.4970    0.7510    3.0830 c3        1 MOL      0.364580
      9 C4         -3.0970    2.1120    3.0020 c         1 MOL      0.425415
     10 O2         -3.6760    2.5890    3.9960 o         1 MOL     -0.589124
     11 C5         -3.5760   -0.3740    2.8480 c3        1 MOL     -0.456637
     12 C6         -4.4510   -0.1310    1.6060 c         1 MOL      0.955054
     13 O3         -5.6330   -0.5270    1.5060 o         1 MOL     -0.731323
     14 O4         -3.9450    0.4640    0.6180 o         1 MOL     -0.731323
     15 H4         -2.3790   -0.1350    4.9550 hn        1 MOL      0.302560
     16 H5         -1.7740    0.5940    2.2870 h1        1 MOL     -0.034601
     17 H6         -4.2570   -0.2600    3.6890 hc        1 MOL      0.070896
     18 H7         -3.1820   -1.3940    2.7860 hc        1 MOL      0.070896
     19 N2         -2.8240    2.7920    1.9060 n         1 MOL     -0.136377
     20 C7         -3.0170    4.2920    1.6640 c3        1 MOL      0.005882
     21 C8         -3.9750    4.6050    0.4940 c         1 MOL      0.331159
     22 O5         -4.7000    5.5960    0.5500 o         1 MOL     -0.519632
     23 C9         -1.6230    4.9690    1.3330 c3        1 MOL      0.220961
     24 C10        -0.5720    4.7720    2.5310 c3        1 MOL     -0.011555
     25 C11        -1.7330    6.4310    0.9160 c3        1 MOL     -0.287002
     26 C12         0.8870    5.2530    2.2550 c3        1 MOL      0.030657
     27 H8         -2.0940    2.4220    1.3200 hn        1 MOL      0.102483
     28 H9         -3.3920    4.8180    2.5470 h1        1 MOL      0.057079
     29 H10        -1.3140    4.3470    0.5020 hc        1 MOL      0.002057
     30 H11        -0.6200    3.7230    2.7820 hc        1 MOL     -0.025171
     31 H12        -0.9480    5.3710    3.3600 hc        1 MOL     -0.025171
     32 H13        -2.3250    6.6790    0.0430 hc        1 MOL      0.062075
     33 H14        -2.2730    6.9450    1.7170 hc        1 MOL      0.062075
     34 H15        -0.7420    6.8650    0.7710 hc        1 MOL      0.062075
     35 H16         1.2680    4.9630    1.2790 hc        1 MOL     -0.006648
     36 H17         0.9270    6.3320    2.2770 hc        1 MOL     -0.006648
     37 H18         1.5900    4.9670    3.0430 hc        1 MOL     -0.006648
     38 N3         -4.0780    3.6700   -0.5000 n         1 MOL     -0.111695
     39 C13        -5.0570    3.8110   -1.6010 c3        1 MOL     -0.069172
     40 C14        -6.4440    3.2530   -1.1580 c         1 MOL      0.415722
     41 O6         -7.4600    3.8030   -1.6480 o         1 MOL     -0.571172
     42 C15        -4.6500    3.0630   -2.8110 c3        1 MOL      0.049665
     43 C16        -3.1310    3.1130   -3.0420 c         1 MOL      0.595666
     44 O7         -2.6380    4.0220   -3.7110 o         1 MOL     -0.663435
     45 O8         -2.5010    2.1140   -2.7040 o         1 MOL     -0.663435
     46 H19        -3.5330    2.8250   -0.4880 hn        1 MOL      0.092722
     47 H20        -5.3540    4.8070   -1.9170 h1        1 MOL      0.090990
     48 H21        -5.1190    3.5090   -3.6840 hc        1 MOL     -0.015232
     49 H22        -4.9670    2.0270   -2.6980 hc        1 MOL     -0.015232
     50 N4         -6.5290    2.2620   -0.2870 n         1 MOL      0.024736
     51 C17        -7.8270    1.6850    0.1340 c3        1 MOL     -0.351859
     52 C18        -8.2380    0.4810   -0.6550 c         1 MOL      0.794212
     53 O9         -9.3030    0.5340   -1.2530 o         1 MOL     -0.624153
     54 H23        -5.6850    2.0230    0.2300 hn        1 MOL      0.078973
     55 H24        -8.5280    2.5170    0.0740 h1        1 MOL      0.110087
     56 H25        -7.8770    1.2840    1.1440 h1        1 MOL      0.110087
     57 N5         -7.4080   -0.5690   -0.5970 n         1 MOL     -0.700333
     58 C19        -7.5050   -1.7450   -1.4350 c3        1 MOL      0.240188
     59 C20        -7.2900   -3.0530   -0.6250 c         1 MOL      0.418442
     60 O10        -7.5720   -4.1260   -1.1130 o         1 MOL     -0.569548
     61 C21        -6.4400   -1.6910   -2.6170 c3        1 MOL     -0.184316
     62 C22        -5.0030   -1.4690   -2.2250 c         1 MOL      0.934151
     63 O11        -4.2630   -0.7970   -2.9130 o         1 MOL     -0.863366
     64 O12        -4.4490   -1.9040   -1.1890 o         1 MOL     -0.863366
     65 H26        -6.5850   -0.4680   -0.0220 hn        1 MOL      0.278228
     66 H27        -8.4940   -1.8930   -1.8730 h1        1 MOL      0.032257
     67 H28        -6.6620   -0.8110   -3.2280 hc        1 MOL      0.036135
     68 H29        -6.5730   -2.5990   -3.2060 hc        1 MOL      0.036135
     69 N6         -6.7880   -2.9230    0.5800 n         1 MOL     -0.236969
     70 C23        -6.6580   -4.1570    1.3920 c3        1 MOL     -0.198747
     71 C24        -5.2570   -4.8110    1.2240 c         1 MOL      0.579563
     72 O13        -5.0540   -5.9360    1.6610 o         1 MOL     -0.616965
     73 H30        -6.5070   -2.0150    0.9340 hn        1 MOL      0.272596
     74 H31        -7.4340   -4.8520    1.0780 h1        1 MOL      0.093388
     75 H32        -6.7100   -3.9080    2.4560 h1        1 MOL      0.093388
     76 N7         -4.3320   -4.2120    0.4790 n         1 MOL     -0.252478
     77 C25        -2.9200   -4.6560    0.3280 c3        1 MOL     -0.043806
     78 C26        -1.9020   -3.5660    0.7170 c         1 MOL      0.512016
     79 O14        -2.0790   -2.4070    0.6070 o         1 MOL     -0.608931
     80 C27        -2.7380   -5.2130   -1.1270 c3        1 MOL      0.142546
     81 C28        -3.0170   -4.5410   -2.5210 c3        1 MOL     -0.271184
     82 C29        -1.8960   -3.6150   -3.0590 c         1 MOL      0.577793
     83 N8         -0.9130   -4.2010   -3.8190 n         1 MOL     -0.790102
     84 O15        -1.7630   -2.4320   -2.6200 o         1 MOL     -0.445866
     85 H33        -4.4510   -3.2620    0.1400 hn        1 MOL      0.245629
     86 H34        -2.7810   -5.4860    1.0220 h1        1 MOL      0.062589
     87 H35        -3.1540   -6.2190   -1.0600 hc        1 MOL     -0.025529
     88 H36        -1.7010   -5.5480   -1.1110 hc        1 MOL     -0.025529
     89 H37        -3.9680   -4.0190   -2.5830 hc        1 MOL      0.085890
     90 H38        -3.1380   -5.3370   -3.2530 hc        1 MOL      0.085890
     91 H39        -1.0770   -5.1700   -4.0540 hn        1 MOL      0.370297
     92 H40        -0.1810   -3.6110   -4.2020 hn        1 MOL      0.370297
     93 N9         -0.7440   -4.0230    1.0810 n         1 MOL     -0.227725
     94 C30         0.4360   -3.2430    1.4070 c3        1 MOL     -0.031720
     95 C31         1.5550   -3.5560    0.3260 c         1 MOL      0.305381
     96 O16         2.1980   -4.6060    0.2860 o         1 MOL     -0.554072
     97 C32         1.0000   -3.4300    2.8210 c3        1 MOL      0.296561
     98 C33         1.9730   -2.2680    3.3070 c3        1 MOL     -0.274817
     99 C34        -0.1890   -3.3840    3.8250 c3        1 MOL     -0.274817
    100 H41        -0.7490   -5.0310    1.1880 hn        1 MOL      0.212034
    101 H42         0.1880   -2.1990    1.1940 h1        1 MOL      0.177379
    102 H43         1.4280   -4.4220    2.9830 hc        1 MOL     -0.037407
    103 H44         1.4920   -1.2870    3.2500 hc        1 MOL      0.047567
    104 H45         2.3930   -2.4490    4.2990 hc        1 MOL      0.047567
    105 H46         2.8190   -2.2020    2.6240 hc        1 MOL      0.047567
    106 H47        -0.6500   -2.3950    3.8610 hc        1 MOL      0.047567
    107 H48        -0.9240   -4.1620    3.5930 hc        1 MOL      0.047567
    108 H49         0.2700   -3.5230    4.8050 hc        1 MOL      0.047567
    109 N10         1.8180   -2.6310   -0.6000 n         1 MOL     -0.158050
    110 C35         2.9530   -2.7560   -1.5160 c3        1 MOL      0.074884
    111 C36         4.2040   -2.1270   -0.8250 c         1 MOL      0.517566
    112 O17         4.0490   -1.5460    0.2400 o         1 MOL     -0.371694
    113 C37         2.5980   -1.9230   -2.7810 c3        1 MOL     -0.220793
    114 C38         3.2610   -0.5530   -2.8430 c         1 MOL      0.567360
    115 N11         2.5490    0.3550   -2.1450 n         1 MOL     -0.596807
    116 O18         4.2610   -0.2520   -3.5000 o         1 MOL     -0.581668
    117 H50         1.2650   -1.7970   -0.6990 hn        1 MOL      0.064808
    118 H51         3.1840   -3.7770   -1.7950 h1        1 MOL      0.058638
    119 H52         1.5170   -1.9500   -2.8560 hc        1 MOL      0.071047
    120 H53         2.9710   -2.4870   -3.6410 hc        1 MOL      0.071047
    121 H54         1.8500    0.0630   -1.4740 hn        1 MOL      0.338217
    122 H55         2.6430    1.3370   -2.3540 hn        1 MOL      0.338217
    123 N12         5.3590   -2.1990   -1.5050 n         1 MOL     -0.716567
    124 C39         6.6550   -1.7120   -0.9150 c3        1 MOL      0.257126
    125 C40         6.6890   -0.2020   -0.4480 c         1 MOL      0.592093
    126 O19         7.1730    0.1600    0.6450 o         1 MOL     -0.510987
    127 C41         7.8100   -2.1190   -1.7920 c3        1 MOL     -0.088765
    128 C42         9.1210   -1.9510   -1.0530 ca        1 MOL      0.037425
    129 C43         9.3710   -2.6300    0.2150 ca        1 MOL     -0.211037
    130 C44        10.1250   -1.1380   -1.5570 ca        1 MOL     -0.211037
    131 C45        10.5970   -2.4950    0.8730 ca        1 MOL     -0.207207
    132 C46        11.3380   -1.0230   -0.8210 ca        1 MOL     -0.207207
    133 C47        11.6060   -1.7660    0.3250 ca        1 MOL      0.313183
    134 O20        12.8790   -1.7440    0.8370 oh        1 MOL     -0.486481
    135 H56         5.3440   -2.6870   -2.3820 hn        1 MOL      0.347588
    136 H57         6.7910   -2.1880    0.0530 h1        1 MOL      0.043557
    137 H58         7.7900   -1.5400   -2.7150 hc        1 MOL      0.050342
    138 H59         7.8170   -3.1210   -2.2190 hc        1 MOL      0.050342
    139 H60         8.5870   -3.2400    0.6370 ha        1 MOL      0.141604
    140 H61         9.9690   -0.5450   -2.4460 ha        1 MOL      0.141604
    141 H62        10.8010   -3.0070    1.8040 ha        1 MOL      0.134944
    142 H63        12.0770   -0.3120   -1.1490 ha        1 MOL      0.134944
    143 H64        13.4070   -1.2220    0.2240 ho        1 MOL      0.330438
    144 N13         6.0860    0.6760   -1.2770 n         1 MOL     -0.550501
    145 C48         5.9990    2.1010   -0.9890 c3        1 MOL      0.180946
    146 C49         5.2050    2.4550    0.2810 c         1 MOL      0.345415
    147 O21         5.5670    3.4120    0.9500 o         1 MOL     -0.544846
    148 C50         5.5340    2.8160   -2.2800 c3        1 MOL      0.028010
    149 C51         5.8680    4.3250   -2.4150 c3        1 MOL     -0.277420
    150 C52         5.0350    5.1180   -3.4020 c         1 MOL      0.770862
    151 O22         5.3590    5.0720   -4.6200 o         1 MOL     -0.755097
    152 O23         4.1070    5.8100   -2.9700 o         1 MOL     -0.755097
    153 H65         5.7000    0.4290   -2.1760 hn        1 MOL      0.307044
    154 H66         7.0190    2.4050   -0.7320 h1        1 MOL      0.031403
    155 H67         4.4530    2.7480   -2.3620 hc        1 MOL      0.011044
    156 H68         6.0140    2.2930   -3.1110 hc        1 MOL      0.011044
    157 H69         6.9010    4.4830   -2.7100 hc        1 MOL      0.028497
    158 H70         5.6210    4.7520   -1.4420 hc        1 MOL      0.028497
    159 N14         4.2250    1.6720    0.6650 n         1 MOL     -0.004579
    160 C53         3.5430    1.8130    1.9580 c3        1 MOL     -0.022567
    161 C54         4.1920    1.0770    3.1650 c         1 MOL      0.429485
    162 O24         4.0420    1.4720    4.2860 o         1 MOL     -0.559083
    163 C55         2.1420    1.3350    1.8740 c3        1 MOL      0.095645
    164 C56         1.2990    1.8330    0.7190 c3        1 MOL     -0.156306
    165 C57         0.2220    0.9290    0.0780 c         1 MOL      0.679034
    166 O25        -0.9580    1.4100   -0.0410 o         1 MOL     -0.702345
    167 O26         0.5000   -0.1520   -0.4330 o         1 MOL     -0.702345
    168 H71         4.0840    0.8100    0.1410 hn        1 MOL      0.024827
    169 H72         3.4330    2.8750    2.1700 h1        1 MOL      0.068022
    170 H73         1.7400    1.6350    2.8470 hc        1 MOL      0.036496
    171 H74         2.1290    0.2480    1.8760 hc        1 MOL      0.036496
    172 H75         1.9560    2.1120   -0.1080 hc        1 MOL      0.058661
    173 H76         0.8290    2.7950    0.9180 hc        1 MOL      0.058661
    174 N15         4.9630    0.0150    2.9550 n         1 MOL      0.033837
    175 C58         5.8540   -0.7340    3.8980 c3        1 MOL     -0.251286
    176 H77         6.7560   -1.0470    3.3720 h1        1 MOL      0.091330
    177 H78         6.1260   -0.0880    4.7320 h1        1 MOL      0.091330
    178 H79         5.3300   -1.6120    4.2730 h1        1 MOL      0.091330
    179 H80         5.2150   -0.1460    1.9870 hn        1 MOL     -0.013468
    180 Ca1        -2.2880   -0.2160   -1.4280 Ca        1 MOL      1.782654
    181 O27        -0.6640    0.0630   -3.6920 oh        1 MOL     -0.911023
    182 H81        -0.4310   -0.3130   -4.5400 ho        1 MOL      0.418756
    183 H82        -0.8220    0.9850   -3.8710 ho        1 MOL      0.418756
@<TRIPOS>BOND
     1    1    2 1   
     2    1    4 1   
     3    1    5 1   
     4    1    6 1   
     5    2    3 2   
     6    2    7 1   
     7    7    8 1   
     8    7   15 1   
     9    8    9 1   
    10    8   11 1   
    11    8   16 1   
    12    9   10 2   
    13    9   19 1   
    14   11   12 1   
    15   11   17 1   
    16   11   18 1   
    17   12   13 1   
    18   12   14 1   
    19   19   20 1   
    20   19   27 1   
    21   20   21 1   
    22   20   23 1   
    23   20   28 1   
    24   21   22 2   
    25   21   38 1   
    26   23   24 1   
    27   23   25 1   
    28   23   29 1   
    29   24   26 1   
    30   24   30 1   
    31   24   31 1   
    32   25   32 1   
    33   25   33 1   
    34   25   34 1   
    35   26   35 1   
    36   26   36 1   
    37   26   37 1   
    38   38   39 1   
    39   38   46 1   
    40   39   40 1   
    41   39   42 1   
    42   39   47 1   
    43   40   41 2   
    44   40   50 1   
    45   42   43 1   
    46   42   48 1   
    47   42   49 1   
    48   43   44 1   
    49   43   45 1   
    50   50   51 1   
    51   50   54 1   
    52   51   52 1   
    53   51   55 1   
    54   51   56 1   
    55   52   53 2   
    56   52   57 1   
    57   57   58 1   
    58   57   65 1   
    59   58   59 1   
    60   58   61 1   
    61   58   66 1   
    62   59   60 2   
    63   59   69 1   
    64   61   62 1   
    65   61   67 1   
    66   61   68 1   
    67   62   63 1   
    68   62   64 1   
    69   69   70 1   
    70   69   73 1   
    71   70   71 1   
    72   70   74 1   
    73   70   75 1   
    74   71   72 2   
    75   71   76 1   
    76   76   77 1   
    77   76   85 1   
    78   77   78 1   
    79   77   80 1   
    80   77   86 1   
    81   78   79 2   
    82   78   93 1   
    83   80   81 1   
    84   80   87 1   
    85   80   88 1   
    86   81   82 1   
    87   81   89 1   
    88   81   90 1   
    89   82   83 1   
    90   82   84 2   
    91   83   91 1   
    92   83   92 1   
    93   93   94 1   
    94   93  100 1   
    95   94   95 1   
    96   94   97 1   
    97   94  101 1   
    98   95   96 2   
    99   95  109 1   
   100   97   98 1   
   101   97   99 1   
   102   97  102 1   
   103   98  103 1   
   104   98  104 1   
   105   98  105 1   
   106   99  106 1   
   107   99  107 1   
   108   99  108 1   
   109  109  110 1   
   110  109  117 1   
   111  110  111 1   
   112  110  113 1   
   113  110  118 1   
   114  111  112 2   
   115  111  123 1   
   116  113  114 1   
   117  113  119 1   
   118  113  120 1   
   119  114  115 1   
   120  114  116 2   
   121  115  121 1   
   122  115  122 1   
   123  123  124 1   
   124  123  135 1   
   125  124  125 1   
   126  124  127 1   
   127  124  136 1   
   128  125  126 2   
   129  125  144 1   
   130  127  128 1   
   131  127  137 1   
   132  127  138 1   
   133  128  129 ar  
   134  128  130 ar  
   135  129  131 ar  
   136  129  139 1   
   137  130  132 ar  
   138  130  140 1   
   139  131  133 ar  
   140  131  141 1   
   141  132  133 ar  
   142  132  142 1   
   143  133  134 1   
   144  134  143 1   
   145  144  145 1   
   146  144  153 1   
   147  145  146 1   
   148  145  148 1   
   149  145  154 1   
   150  146  147 2   
   151  146  159 1   
   152  148  149 1   
   153  148  155 1   
   154  148  156 1   
   155  149  150 1   
   156  149  157 1   
   157  149  158 1   
   158  150  151 1   
   159  150  152 1   
   160  159  160 1   
   161  159  168 1   
   162  160  161 1   
   163  160  163 1   
   164  160  169 1   
   165  161  162 2   
   166  161  174 1   
   167  163  164 1   
   168  163  170 1   
   169  163  171 1   
   170  164  165 1   
   171  164  172 1   
   172  164  173 1   
   173  165  166 1   
   174  165  167 1   
   175  174  175 1   
   176  174  179 1   
   177  175  176 1   
   178  175  177 1   
   179  175  178 1   
   180  181  182 1   
   181  181  183 1   
@<TRIPOS>SUBSTRUCTURE
     1 MOL         1 TEMP              0 ****  ****    0 ROOT
