@<TRIPOS>MOLECULE
MOL
  189   185     1     0     0
SMALL
resp


@<TRIPOS>ATOM
      1 C1          0.3150   -3.8830    5.9680 c3        1 MOL     -0.357253
      2 C2          0.8630   -3.3040    4.6680 c         1 MOL      0.756663
      3 O1          0.7980   -2.1260    4.3990 o         1 MOL     -0.597959
      4 H1          1.0820   -3.8290    6.7400 hc        1 MOL      0.086076
      5 H2         -0.5570   -3.3090    6.2820 hc        1 MOL      0.086076
      6 H3          0.0290   -4.9230    5.8110 hc        1 MOL      0.086076
      7 N1          1.5900   -4.1720    3.9450 n         1 MOL     -0.596125
      8 C3          2.1020   -3.8750    2.5990 c3        1 MOL      0.096593
      9 C4          2.0750   -5.0390    1.5380 c         1 MOL      0.345301
     10 O2          2.3240   -6.2200    1.8550 o         1 MOL     -0.552619
     11 C5          3.5520   -3.5680    2.7670 c3        1 MOL      0.018683
     12 C6          4.2630   -3.1790    1.4610 c         1 MOL      0.620683
     13 O3          5.3740   -3.7140    1.2490 o         1 MOL     -0.661693
     14 O4          3.7020   -2.3720    0.6680 o         1 MOL     -0.661693
     15 H4          1.7300   -5.0650    4.3880 hn        1 MOL      0.315769
     16 H5          1.5680   -3.0160    2.2170 h1        1 MOL      0.110881
     17 H6          4.1280   -4.3450    3.2790 hc        1 MOL     -0.025357
     18 H7          3.6600   -2.7480    3.4790 hc        1 MOL     -0.025357
     19 N2          1.8060   -4.7640    0.2540 n         1 MOL      0.021813
     20 C7          1.8690   -5.8120   -0.7850 c3        1 MOL     -0.085399
     21 C8          2.9470   -5.4880   -1.8500 c         1 MOL      0.433135
     22 O5          3.1620   -6.3280   -2.7180 o         1 MOL     -0.597608
     23 C9          0.5060   -6.1120   -1.3920 c3        1 MOL      0.300014
     24 C10         0.0040   -4.9560   -2.3450 c3        1 MOL      0.290651
     25 C11        -0.5300   -6.3830   -0.3260 c3        1 MOL     -0.371198
     26 C12        -0.9340   -5.4830   -3.4160 c3        1 MOL     -0.435295
     27 H8          1.3110   -3.9140    0.0430 hn        1 MOL     -0.000288
     28 H9          2.2180   -6.7320   -0.3170 h1        1 MOL      0.082698
     29 H10         0.6340   -7.0090   -1.9980 hc        1 MOL     -0.072776
     30 H11         0.8080   -4.4240   -2.8630 hc        1 MOL     -0.013626
     31 H12        -0.6030   -4.2760   -1.7420 hc        1 MOL     -0.013626
     32 H13        -0.7380   -5.5240    0.3020 hc        1 MOL      0.071211
     33 H14        -1.5270   -6.5860   -0.7140 hc        1 MOL      0.071211
     34 H15        -0.1540   -7.2370    0.2430 hc        1 MOL      0.071211
     35 H16        -0.3170   -5.9530   -4.1870 hc        1 MOL      0.082625
     36 H17        -1.6290   -6.1240   -2.8710 hc        1 MOL      0.082625
     37 H18        -1.4700   -4.6390   -3.8320 hc        1 MOL      0.082625
     38 N3          3.4720   -4.3060   -1.8860 n         1 MOL     -0.292766
     39 C13         4.3320   -3.8300   -3.0090 c3        1 MOL      0.225225
     40 C14         5.6750   -3.1870   -2.5750 c         1 MOL      0.272778
     41 O6          6.6470   -3.3140   -3.2920 o         1 MOL     -0.543711
     42 C15         3.5140   -2.9640   -3.9540 c3        1 MOL     -0.469820
     43 C16         2.8770   -1.7260   -3.2090 c         1 MOL      0.781991
     44 O7          3.3880   -1.1800   -2.2220 o         1 MOL     -0.714417
     45 O8          1.7240   -1.3740   -3.6450 o         1 MOL     -0.714417
     46 H19         3.3980   -3.6900   -1.0810 hn        1 MOL      0.208988
     47 H20         4.7470   -4.6540   -3.5830 h1        1 MOL      0.047727
     48 H21         2.7380   -3.6060   -4.3480 hc        1 MOL      0.124044
     49 H22         4.1620   -2.7390   -4.7950 hc        1 MOL      0.124044
     50 N4          5.6970   -2.4780   -1.4870 n         1 MOL      0.063378
     51 C17         6.9880   -1.9330   -0.9300 c3        1 MOL     -0.214835
     52 C18         7.3650   -0.6150   -1.4980 c         1 MOL      0.472787
     53 O9          8.5420   -0.4310   -1.7080 o         1 MOL     -0.564390
     54 H23         4.8830   -2.5000   -0.8870 hn        1 MOL      0.042271
     55 H24         7.8130   -2.6250   -1.0880 h1        1 MOL      0.103606
     56 H25         6.8370   -1.8080    0.1450 h1        1 MOL      0.103606
     57 N5          6.3530    0.2110   -1.7800 n         1 MOL     -0.175025
     58 C19         6.5550    1.6300   -2.2260 c3        1 MOL     -0.040552
     59 C20         7.1740    2.5640   -1.1100 c         1 MOL      0.370359
     60 O10         7.9270    3.5310   -1.4070 o         1 MOL     -0.566309
     61 C21         5.3430    2.3300   -2.7940 c3        1 MOL     -0.210008
     62 C22         4.0350    2.1750   -2.0390 c         1 MOL      0.784936
     63 O11         4.1140    1.6750   -0.9300 o         1 MOL     -0.730553
     64 O12         2.9860    2.5910   -2.6100 o         1 MOL     -0.730553
     65 H26         5.4010   -0.1130   -1.6800 hn        1 MOL      0.175754
     66 H27         7.3230    1.5460   -2.9960 h1        1 MOL      0.091346
     67 H28         5.1570    1.8310   -3.7500 hc        1 MOL      0.066157
     68 H29         5.4820    3.3820   -3.0280 hc        1 MOL      0.066157
     69 N6          6.7870    2.4020    0.1120 n         1 MOL     -0.095395
     70 C23         7.0040    3.3080    1.2620 c3        1 MOL     -0.034682
     71 C24         5.8130    4.1950    1.6630 c         1 MOL      0.667075
     72 O13         5.9270    5.1770    2.2300 o         1 MOL     -0.578169
     73 H30         6.0440    1.7240    0.2020 hn        1 MOL      0.081926
     74 H31         7.8720    3.9460    1.1140 h1        1 MOL      0.031527
     75 H32         7.2460    2.7010    2.1370 h1        1 MOL      0.031527
     76 N7          4.5700    3.8090    1.2640 n         1 MOL     -0.475756
     77 C25         3.3290    4.4670    1.5090 c3        1 MOL     -0.032175
     78 C26         2.0940    3.6050    1.4380 c         1 MOL      0.653018
     79 O14         2.0550    2.3960    1.1730 o         1 MOL     -0.647815
     80 C27         3.2570    5.7160    0.6470 c3        1 MOL     -0.337603
     81 C28         2.9840    5.5760   -0.8190 c3        1 MOL     -0.035203
     82 C29         3.1020    6.9560   -1.4240 c         1 MOL      0.648738
     83 N8          4.0790    7.3390   -2.2040 n         1 MOL     -0.784633
     84 O15         2.3460    7.8540   -1.1730 o         1 MOL     -0.590141
     85 H33         4.4720    3.0200    0.6370 hn        1 MOL      0.331367
     86 H34         3.3490    4.8000    2.5490 h1        1 MOL      0.076531
     87 H35         4.1350    6.3610    0.7500 hc        1 MOL      0.112398
     88 H36         2.3850    6.2860    0.9710 hc        1 MOL      0.112398
     89 H37         1.9650    5.2160   -0.9680 hc        1 MOL      0.056706
     90 H38         3.6240    4.8460   -1.3000 hc        1 MOL      0.056706
     91 H39         4.8480    6.7010   -2.3450 hn        1 MOL      0.356117
     92 H40         4.0920    8.3540   -2.2030 hn        1 MOL      0.356117
     93 N9          0.9660    4.1430    1.9330 n         1 MOL     -0.398600
     94 C30        -0.2310    3.3840    2.3430 c3        1 MOL     -0.029996
     95 C31        -1.3260    3.5060    1.2820 c         1 MOL      0.500211
     96 O16        -1.8160    4.6010    1.1060 o         1 MOL     -0.595542
     97 C32        -0.7280    3.7810    3.6850 c3        1 MOL      0.283113
     98 C33        -2.0280    3.0930    4.1560 c3        1 MOL     -0.292631
     99 C34         0.2930    3.4040    4.7030 c3        1 MOL     -0.292631
    100 H41         1.0640    5.0940    2.2720 hn        1 MOL      0.262823
    101 H42         0.0160    2.3180    2.3350 h1        1 MOL      0.169772
    102 H43        -0.8880    4.8550    3.7630 hc        1 MOL     -0.040546
    103 H44        -2.2400    3.4470    5.1670 hc        1 MOL      0.057562
    104 H45        -2.7990    3.4480    3.4700 hc        1 MOL      0.057562
    105 H46        -1.8420    2.0250    4.2880 hc        1 MOL      0.057562
    106 H47         1.2790    3.8380    4.5630 hc        1 MOL      0.057562
    107 H48        -0.0750    3.6060    5.7090 hc        1 MOL      0.057562
    108 H49         0.4050    2.3230    4.5670 hc        1 MOL      0.057562
    109 N10        -1.6790    2.4250    0.5720 n         1 MOL     -0.281859
    110 C35        -2.8520    2.5550   -0.3040 c3        1 MOL      0.208412
    111 C36        -4.0460    2.1880    0.5160 c         1 MOL      0.037013
    112 O17        -3.9700    1.4870    1.5120 o         1 MOL     -0.095146
    113 C37        -2.6420    1.4490   -1.3330 c3        1 MOL     -0.290467
    114 C38        -3.8250    1.2330   -2.2080 c         1 MOL      0.739207
    115 N11        -4.2830    2.2230   -2.8980 n         1 MOL     -0.729158
    116 O18        -4.5750    0.2620   -2.1910 o         1 MOL     -0.663633
    117 H50        -1.1710    1.5780    0.7540 hn        1 MOL      0.182163
    118 H51        -3.0010    3.5280   -0.7650 h1        1 MOL      0.057064
    119 H52        -2.3310    0.5130   -0.8700 hc        1 MOL      0.099565
    120 H53        -1.7840    1.7450   -1.9350 hc        1 MOL      0.099565
    121 H54        -3.7440    3.0820   -2.9980 hn        1 MOL      0.314346
    122 H55        -5.1750    2.1300   -3.3590 hn        1 MOL      0.314346
    123 N12        -5.2460    2.5900   -0.0380 n         1 MOL     -0.128053
    124 C39        -6.5320    2.3720    0.5590 c3        1 MOL      0.058475
    125 C40        -6.7310    0.8410    0.8760 c         1 MOL      0.235783
    126 O19        -7.2870    0.5100    1.9240 o         1 MOL     -0.537677
    127 C41        -7.6680    2.9620   -0.3600 c3        1 MOL     -0.179427
    128 C42        -7.6050    2.6850   -1.8420 ca        1 MOL     -0.018399
    129 C43        -7.0230    3.6900   -2.6180 ca        1 MOL     -0.077311
    130 C44        -8.0690    1.4600   -2.3350 ca        1 MOL     -0.077311
    131 C45        -7.0610    3.4600   -4.0370 ca        1 MOL     -0.367734
    132 C46        -7.9430    1.1590   -3.6650 ca        1 MOL     -0.367734
    133 C47        -7.4840    2.2070   -4.5700 ca        1 MOL      0.519223
    134 O20        -7.3840    1.9100   -5.8620 oh        1 MOL     -0.619429
    135 H56        -5.2760    3.0820   -0.9190 hn        1 MOL      0.104224
    136 H57        -6.6250    2.9660    1.4690 h1        1 MOL      0.059332
    137 H58        -7.8540    4.0310   -0.2490 hc        1 MOL      0.072868
    138 H59        -8.6070    2.4780   -0.1020 hc        1 MOL      0.072868
    139 H60        -6.6950    4.5680   -2.0740 ha        1 MOL      0.118923
    140 H61        -8.3990    0.7110   -1.6360 ha        1 MOL      0.118923
    141 H62        -6.7190    4.2020   -4.7460 ha        1 MOL      0.138067
    142 H63        -8.2880    0.2100   -4.0380 ha        1 MOL      0.138067
    143 H64        -7.4590    0.9750   -6.0520 ho        1 MOL      0.452098
    144 N13        -6.3900   -0.0850   -0.0100 n         1 MOL      0.039651
    145 C48        -6.5830   -1.6170    0.1830 c3        1 MOL     -0.504540
    146 C49        -5.6240   -2.1690    1.2790 c         1 MOL      0.578091
    147 O21        -5.7310   -3.2960    1.6990 o         1 MOL     -0.564049
    148 C50        -6.3270   -2.4180   -1.1490 c3        1 MOL      0.023800
    149 C51        -7.3640   -2.2010   -2.2680 c3        1 MOL     -0.044125
    150 C52        -8.7380   -2.6080   -1.8680 c         1 MOL      0.666346
    151 O22        -9.6050   -1.9590   -2.4800 o         1 MOL     -0.717892
    152 O23        -8.9610   -3.4030   -0.9490 o         1 MOL     -0.717892
    153 H65        -6.0570    0.2390   -0.9170 hn        1 MOL      0.497466
    154 H66        -7.5760   -1.7940    0.5850 h1        1 MOL      0.256845
    155 H67        -6.3020   -3.4880   -0.9390 hc        1 MOL      0.031470
    156 H68        -5.3180   -2.3410   -1.5400 hc        1 MOL      0.031470
    157 H69        -7.1330   -2.7190   -3.1960 hc        1 MOL     -0.024339
    158 H70        -7.3050   -1.1180   -2.3960 hc        1 MOL     -0.024339
    159 N14        -4.5980   -1.4670    1.6770 n         1 MOL     -0.020425
    160 C53        -3.6190   -1.7500    2.7410 c3        1 MOL     -0.129139
    161 C54        -4.2320   -1.2040    4.0490 c         1 MOL      0.505623
    162 O24        -4.3990   -1.9060    4.9970 o         1 MOL     -0.553285
    163 C55        -2.2640   -1.1230    2.4890 c3        1 MOL      0.098323
    164 C56        -1.5750   -1.7330    1.2980 c3        1 MOL     -0.145589
    165 C57        -0.2180   -1.1440    0.8260 c         1 MOL      0.864196
    166 O25         0.6030   -1.8360    0.2200 o         1 MOL     -0.779724
    167 O26         0.0720    0.0660    1.0150 o         1 MOL     -0.779724
    168 H71        -4.5240   -0.5280    1.3100 hn        1 MOL     -0.131263
    169 H72        -3.4600   -2.8190    2.8810 h1        1 MOL      0.085467
    170 H73        -1.5890   -1.2690    3.3350 hc        1 MOL     -0.031681
    171 H74        -2.3730   -0.0700    2.2450 hc        1 MOL     -0.031681
    172 H75        -2.2850   -1.6220    0.4780 hc        1 MOL      0.026739
    173 H76        -1.3530   -2.7770    1.5020 hc        1 MOL      0.026739
    174 N15        -4.5790    0.1060    4.0150 n         1 MOL     -0.095229
    175 C58        -5.1930    0.8770    5.0900 c3        1 MOL     -0.203329
    176 H77        -6.2650    0.6770    5.1130 h1        1 MOL      0.076124
    177 H78        -4.7500    0.5900    6.0430 h1        1 MOL      0.076124
    178 H79        -5.0260    1.9400    4.9160 h1        1 MOL      0.076124
    179 H80        -4.4180    0.6090    3.1550 hn        1 MOL      0.080377
    180 Ca1         2.6150   -0.1170    0.1450 Ca        1 MOL      1.810506
    181 O27         2.6100   -0.3850    2.8790 oh        1 MOL     -0.855241
    182 H81         3.2980   -0.0920    3.4790 ho        1 MOL      0.405137
    183 H82         1.9990   -0.8790    3.4320 ho        1 MOL      0.405137
    184 O28         5.1470    0.5030    1.6700 oh        1 MOL     -0.855241
    185 H83         6.0950    0.4290    1.8030 ho        1 MOL      0.405137
    186 H84         4.7880    0.5620    2.5600 ho        1 MOL      0.405137
    187 O29         1.1870    0.7740   -2.0600 oh        1 MOL     -0.855241
    188 H85         1.5570    1.6100   -2.3490 ho        1 MOL      0.405137
    189 H86         1.2750    0.1960   -2.8120 ho        1 MOL      0.405137
@<TRIPOS>BOND
     1    1    2 1   
     2    1    4 1   
     3    1    5 1   
     4    1    6 1   
     5    2    3 2   
     6    2    7 1   
     7    7    8 1   
     8    7   15 1   
     9    8    9 1   
    10    8   11 1   
    11    8   16 1   
    12    9   10 2   
    13    9   19 1   
    14   11   12 1   
    15   11   17 1   
    16   11   18 1   
    17   12   13 1   
    18   12   14 1   
    19   19   20 1   
    20   19   27 1   
    21   20   21 1   
    22   20   23 1   
    23   20   28 1   
    24   21   22 2   
    25   21   38 1   
    26   23   24 1   
    27   23   25 1   
    28   23   29 1   
    29   24   26 1   
    30   24   30 1   
    31   24   31 1   
    32   25   32 1   
    33   25   33 1   
    34   25   34 1   
    35   26   35 1   
    36   26   36 1   
    37   26   37 1   
    38   38   39 1   
    39   38   46 1   
    40   39   40 1   
    41   39   42 1   
    42   39   47 1   
    43   40   41 2   
    44   40   50 1   
    45   42   43 1   
    46   42   48 1   
    47   42   49 1   
    48   43   44 1   
    49   43   45 1   
    50   50   51 1   
    51   50   54 1   
    52   51   52 1   
    53   51   55 1   
    54   51   56 1   
    55   52   53 2   
    56   52   57 1   
    57   57   58 1   
    58   57   65 1   
    59   58   59 1   
    60   58   61 1   
    61   58   66 1   
    62   59   60 2   
    63   59   69 1   
    64   61   62 1   
    65   61   67 1   
    66   61   68 1   
    67   62   63 1   
    68   62   64 1   
    69   69   70 1   
    70   69   73 1   
    71   70   71 1   
    72   70   74 1   
    73   70   75 1   
    74   71   72 2   
    75   71   76 1   
    76   76   77 1   
    77   76   85 1   
    78   77   78 1   
    79   77   80 1   
    80   77   86 1   
    81   78   79 2   
    82   78   93 1   
    83   80   81 1   
    84   80   87 1   
    85   80   88 1   
    86   81   82 1   
    87   81   89 1   
    88   81   90 1   
    89   82   83 1   
    90   82   84 2   
    91   83   91 1   
    92   83   92 1   
    93   93   94 1   
    94   93  100 1   
    95   94   95 1   
    96   94   97 1   
    97   94  101 1   
    98   95   96 2   
    99   95  109 1   
   100   97   98 1   
   101   97   99 1   
   102   97  102 1   
   103   98  103 1   
   104   98  104 1   
   105   98  105 1   
   106   99  106 1   
   107   99  107 1   
   108   99  108 1   
   109  109  110 1   
   110  109  117 1   
   111  110  111 1   
   112  110  113 1   
   113  110  118 1   
   114  111  112 2   
   115  111  123 1   
   116  113  114 1   
   117  113  119 1   
   118  113  120 1   
   119  114  115 1   
   120  114  116 2   
   121  115  121 1   
   122  115  122 1   
   123  123  124 1   
   124  123  135 1   
   125  124  125 1   
   126  124  127 1   
   127  124  136 1   
   128  125  126 2   
   129  125  144 1   
   130  127  128 1   
   131  127  137 1   
   132  127  138 1   
   133  128  129 ar  
   134  128  130 ar  
   135  129  131 ar  
   136  129  139 1   
   137  130  132 ar  
   138  130  140 1   
   139  131  133 ar  
   140  131  141 1   
   141  132  133 ar  
   142  132  142 1   
   143  133  134 1   
   144  134  143 1   
   145  144  145 1   
   146  144  153 1   
   147  145  146 1   
   148  145  148 1   
   149  145  154 1   
   150  146  147 2   
   151  146  159 1   
   152  148  149 1   
   153  148  155 1   
   154  148  156 1   
   155  149  150 1   
   156  149  157 1   
   157  149  158 1   
   158  150  151 1   
   159  150  152 1   
   160  159  160 1   
   161  159  168 1   
   162  160  161 1   
   163  160  163 1   
   164  160  169 1   
   165  161  162 2   
   166  161  174 1   
   167  163  164 1   
   168  163  170 1   
   169  163  171 1   
   170  164  165 1   
   171  164  172 1   
   172  164  173 1   
   173  165  166 1   
   174  165  167 1   
   175  174  175 1   
   176  174  179 1   
   177  175  176 1   
   178  175  177 1   
   179  175  178 1   
   180  181  182 1   
   181  181  183 1   
   182  184  185 1   
   183  184  186 1   
   184  187  188 1   
   185  187  189 1   
@<TRIPOS>SUBSTRUCTURE
     1 MOL         1 TEMP              0 ****  ****    0 ROOT
