@<TRIPOS>MOLECULE
MOL
  175   173     1     0     0
SMALL
resp


@<TRIPOS>ATOM
      1 C1         -0.1410    3.6000    6.0590 c3        1 MOL     -0.376678
      2 C2         -0.5520    3.4320    4.6040 c         1 MOL      0.719404
      3 O1         -0.0070    4.0840    3.7530 o         1 MOL     -0.583629
      4 H1          0.9440    3.5320    6.1400 hc        1 MOL      0.089919
      5 H2         -0.4700    4.5730    6.4210 hc        1 MOL      0.089919
      6 H3         -0.5990    2.8140    6.6600 hc        1 MOL      0.089919
      7 N1         -1.4640    2.5000    4.2570 n         1 MOL     -0.552688
      8 C3         -1.9360    2.2690    2.9390 c3        1 MOL     -0.017605
      9 C4         -2.4500    3.5900    2.2700 c         1 MOL      0.689765
     10 O2         -3.2210    4.3620    2.8050 o         1 MOL     -0.613159
     11 C5         -3.0590    1.2410    2.9940 c3        1 MOL     -0.159238
     12 C6         -3.7140    0.7520    1.7580 c         1 MOL      0.869923
     13 O3         -3.0950    0.8900    0.6470 o         1 MOL     -0.784459
     14 O4         -4.8940    0.3660    1.8300 o         1 MOL     -0.784459
     15 H4         -1.8900    2.0690    5.0590 hn        1 MOL      0.297557
     16 H5         -1.0780    1.8720    2.4040 h1        1 MOL      0.126068
     17 H6         -3.8440    1.6920    3.6030 hc        1 MOL      0.030326
     18 H7         -2.7100    0.3550    3.5300 hc        1 MOL      0.030326
     19 N2         -1.9970    3.8910    1.0660 n         1 MOL     -0.337055
     20 C7         -2.1340    5.2490    0.4590 c3        1 MOL      0.168719
     21 C8         -3.1050    5.3780   -0.6920 c         1 MOL      0.304000
     22 O5         -3.7470    6.3910   -0.9540 o         1 MOL     -0.559045
     23 C9         -0.7270    5.7620    0.0220 c3        1 MOL     -0.351677
     24 H8         -1.4290    3.2710    0.5190 hn        1 MOL      0.180990
     25 H9         -2.5640    5.8330    1.2670 h1        1 MOL      0.054970
     26 H10        -0.6800    6.7940   -0.2900 hc        1 MOL      0.099835
     27 H11        -0.0390    5.8150    0.8640 hc        1 MOL      0.099835
     28 H12        -0.3380    5.0390   -0.6910 hc        1 MOL      0.099835
     29 N3         -3.2400    4.2950   -1.4140 n         1 MOL     -0.091686
     30 C10        -4.2970    4.0820   -2.3990 c3        1 MOL     -0.016265
     31 C11        -5.5830    3.4540   -1.8600 c         1 MOL      0.490744
     32 O6         -6.6100    3.2070   -2.5080 o         1 MOL     -0.568603
     33 C12        -3.8030    3.4550   -3.7580 c3        1 MOL      0.022588
     34 C13        -3.2880    2.0800   -3.7540 c         1 MOL      0.766130
     35 O7         -3.5180    1.3790   -4.7490 o         1 MOL     -0.739199
     36 O8         -2.8450    1.6090   -2.6970 o         1 MOL     -0.739199
     37 H13        -2.5600    3.5710   -1.2100 hn        1 MOL      0.175658
     38 H14        -4.6960    5.0700   -2.6230 h1        1 MOL      0.071293
     39 H15        -2.9470    4.1110   -3.9570 hc        1 MOL     -0.029249
     40 H16        -4.5410    3.6990   -4.5130 hc        1 MOL     -0.029249
     41 N4         -5.5310    3.0210   -0.6030 n         1 MOL     -0.181857
     42 C14        -6.7130    2.5670    0.1560 c3        1 MOL     -0.401534
     43 C15        -7.2620    1.1950   -0.1850 c         1 MOL      0.728154
     44 O9         -8.3580    0.8620    0.1380 o         1 MOL     -0.634280
     45 H17        -4.6900    3.0080   -0.0520 hn        1 MOL      0.194721
     46 H18        -7.5110    3.2830   -0.0300 h1        1 MOL      0.151901
     47 H19        -6.4130    2.4920    1.2020 h1        1 MOL      0.151901
     48 N5         -6.4010    0.2510   -0.6830 n         1 MOL     -0.253099
     49 C16        -6.8610   -1.0090   -1.1610 c3        1 MOL      0.033650
     50 C17        -6.7930   -2.1700   -0.0780 c         1 MOL      0.391166
     51 O10        -6.9940   -3.3000   -0.5900 o         1 MOL     -0.544883
     52 C18        -6.1540   -1.3090   -2.4790 c3        1 MOL     -0.434291
     53 C19        -4.7820   -1.8420   -2.2220 c         1 MOL      0.555404
     54 N6         -4.3440   -2.8080   -3.0120 n         1 MOL     -0.670822
     55 O11        -4.0560   -1.4950   -1.2730 o         1 MOL     -0.360252
     56 H20        -5.4170    0.4040   -0.5060 hn        1 MOL      0.060876
     57 H21        -7.9230   -0.8740   -1.3540 h1        1 MOL      0.108959
     58 H22        -6.0410   -0.4220   -3.1130 hc        1 MOL      0.152027
     59 H23        -6.7310   -2.1080   -2.9520 hc        1 MOL      0.152027
     60 H24        -4.8710   -3.1050   -3.8150 hn        1 MOL      0.320098
     61 H25        -3.3470   -2.9900   -3.0140 hn        1 MOL      0.320098
     62 N7         -6.4860   -1.9510    1.1710 n         1 MOL     -0.225645
     63 C20        -6.4450   -3.0530    2.1170 c3        1 MOL     -0.304360
     64 C21        -5.2510   -3.9880    2.0050 c         1 MOL      0.660118
     65 O12        -5.2840   -4.9880    2.6730 o         1 MOL     -0.576584
     66 H26        -6.1530   -1.0300    1.3990 hn        1 MOL      0.337724
     67 H27        -7.3830   -3.5870    1.9980 h1        1 MOL      0.134519
     68 H28        -6.3230   -2.5380    3.0690 h1        1 MOL      0.134519
     69 N8         -4.2270   -3.7510    1.0710 n         1 MOL     -0.357102
     70 C22        -2.9470   -4.4550    1.0420 c3        1 MOL     -0.021075
     71 C23        -1.7680   -3.4790    0.9920 c         1 MOL      0.638374
     72 O13        -1.9990   -2.3030    0.6830 o         1 MOL     -0.585327
     73 C24        -2.8820   -5.5150   -0.0420 c3        1 MOL      0.210226
     74 C25        -3.9490   -6.5850    0.3180 c3        1 MOL     -0.436468
     75 O14        -3.2360   -5.0340   -1.3570 oh        1 MOL     -0.577719
     76 H29        -4.2350   -2.8310    0.6590 hn        1 MOL      0.216875
     77 H30        -2.9120   -4.9510    2.0120 h1        1 MOL      0.056845
     78 H31        -1.9030   -6.0020    0.0460 h1        1 MOL      0.035663
     79 H32        -4.0390   -5.5440   -1.5030 ho        1 MOL      0.402747
     80 H33        -4.0430   -7.3420   -0.4520 hc        1 MOL      0.120070
     81 H34        -3.6500   -7.0290    1.2640 hc        1 MOL      0.120070
     82 H35        -4.9450   -6.1480    0.3360 hc        1 MOL      0.120070
     83 N9         -0.5400   -3.9450    1.3540 n         1 MOL     -0.600072
     84 C26         0.6290   -3.0740    1.4560 c3        1 MOL      0.043320
     85 C27         1.5770   -3.3110    0.3090 c         1 MOL      0.627334
     86 O15         1.9990   -4.4580    0.1720 o         1 MOL     -0.635940
     87 C28         1.3320   -3.1980    2.8490 c3        1 MOL      0.077184
     88 C29         0.3310   -3.3430    4.0280 c3        1 MOL      0.203801
     89 C30         2.1810   -1.9660    3.0780 c3        1 MOL     -0.253664
     90 C31         1.0120   -3.3130    5.3830 c3        1 MOL     -0.450620
     91 H36        -0.4860   -4.9170    1.6090 hn        1 MOL      0.312128
     92 H37         0.3400   -2.0200    1.4730 h1        1 MOL      0.069928
     93 H38         2.0620   -4.0120    2.8710 hc        1 MOL     -0.021077
     94 H39        -0.2240   -4.2640    3.9160 hc        1 MOL     -0.013378
     95 H40        -0.4240   -2.5560    3.9710 hc        1 MOL     -0.013378
     96 H41         2.8740   -1.8930    2.2260 hc        1 MOL      0.055673
     97 H42         1.5200   -1.1140    3.2280 hc        1 MOL      0.055673
     98 H43         2.7830   -1.9040    3.9800 hc        1 MOL      0.055673
     99 H44         1.1410   -2.2470    5.6060 hc        1 MOL      0.104759
    100 H45         0.3910   -3.7670    6.1540 hc        1 MOL      0.104759
    101 H46         1.9650   -3.8470    5.3140 hc        1 MOL      0.104759
    102 N10         1.9900   -2.2730   -0.3550 n         1 MOL     -0.316048
    103 C32         2.9960   -2.0860   -1.4460 c3        1 MOL      0.153025
    104 C33         4.2860   -1.3840   -0.9190 c         1 MOL      0.227111
    105 O16         4.2760   -0.5980   -0.0290 o         1 MOL     -0.041242
    106 C34         2.6110   -1.2550   -2.6870 c3        1 MOL     -0.298955
    107 C35         1.1450   -1.3230   -3.1780 c         1 MOL      0.755553
    108 O17         0.7860   -2.1520   -4.0460 o         1 MOL     -0.705104
    109 O18         0.3650   -0.4930   -2.7160 o         1 MOL     -0.705104
    110 H47         1.4850   -1.4360   -0.1220 hn        1 MOL      0.191711
    111 H48         3.1950   -3.1080   -1.7580 h1        1 MOL      0.048272
    112 H49         3.2780   -1.5810   -3.4890 hc        1 MOL      0.074903
    113 H50         2.8090   -0.2240   -2.4090 hc        1 MOL      0.074903
    114 N11         5.5100   -1.6790   -1.4150 n         1 MOL     -0.538797
    115 C36         6.8430   -1.3870   -0.8610 c3        1 MOL      0.205724
    116 C37         7.0240    0.0510   -0.5630 c         1 MOL      0.298760
    117 O19         7.4960    0.4450    0.5300 o         1 MOL     -0.460701
    118 C38         7.9860   -1.9440   -1.8070 c3        1 MOL     -0.290471
    119 C39         9.3940   -1.5940   -1.4200 ca        1 MOL      0.263295
    120 C40        10.0670   -0.5480   -2.0960 ca        1 MOL     -0.312983
    121 C41        10.0730   -2.3420   -0.3980 ca        1 MOL     -0.312983
    122 C42        11.3180   -0.0960   -1.5590 ca        1 MOL     -0.017254
    123 C43        11.3080   -1.8900    0.0190 ca        1 MOL     -0.017254
    124 C44        11.9300   -0.7830   -0.4760 ca        1 MOL     -0.177243
    125 H51         5.5580   -2.3920   -2.1340 hn        1 MOL      0.292775
    126 H52         6.9530   -1.9560    0.0680 h1        1 MOL      0.074743
    127 H53         7.8430   -1.6550   -2.8420 hc        1 MOL      0.088318
    128 H54         8.0360   -3.0280   -1.8430 hc        1 MOL      0.088318
    129 H55         9.6070   -0.0300   -2.9210 ha        1 MOL      0.161998
    130 H56         9.5950   -3.1780    0.0920 ha        1 MOL      0.161998
    131 H57        11.8560    0.7160   -2.0140 ha        1 MOL      0.089959
    132 H58        11.7990   -2.3140    0.8890 ha        1 MOL      0.089959
    133 H59        12.8550   -0.4090   -0.0730 ha        1 MOL      0.117939
    134 N12         6.5170    1.0030   -1.4340 n         1 MOL      0.010512
    135 C45         6.5420    2.4240   -1.1350 c3        1 MOL      0.005451
    136 C46         5.7420    2.7830    0.1320 c         1 MOL      0.284057
    137 O20         6.1430    3.6900    0.8440 o         1 MOL     -0.515759
    138 C47         5.8980    3.1400   -2.2990 c3        1 MOL     -0.049009
    139 C48         6.4190    2.3400   -3.4360 c3        1 MOL      0.032636
    140 C49         6.1990    0.8910   -2.9110 c3        1 MOL     -0.042954
    141 H60         7.5620    2.7680   -0.9870 h1        1 MOL      0.060932
    142 H61         4.8120    3.0910   -2.3080 hc        1 MOL      0.046054
    143 H62         6.1110    4.1900   -2.4630 hc        1 MOL      0.046054
    144 H63         5.9190    2.4290   -4.4030 hc        1 MOL      0.002766
    145 H64         7.4900    2.5340   -3.5440 hc        1 MOL      0.002766
    146 H65         5.1940    0.5200   -3.1130 h1        1 MOL      0.027590
    147 H66         7.0110    0.3520   -3.3860 h1        1 MOL      0.027590
    148 N13         4.6710    2.0620    0.5280 n         1 MOL     -0.137235
    149 C50         3.8240    2.2580    1.7340 c3        1 MOL     -0.076317
    150 C51         4.4170    1.3800    2.8920 c         1 MOL      0.421438
    151 O21         4.2870    1.8050    4.0650 o         1 MOL     -0.564020
    152 C52         2.4780    1.6240    1.4940 c3        1 MOL      0.006344
    153 C53         1.8110    2.1470    0.2150 c3        1 MOL     -0.138456
    154 C54         0.5050    1.3620   -0.0240 c         1 MOL      0.646418
    155 O22        -0.4270    1.9900   -0.4920 o         1 MOL     -0.717744
    156 O23         0.3800    0.1400    0.2350 o         1 MOL     -0.717744
    157 H67         4.5120    1.3190   -0.1280 hn        1 MOL      0.111909
    158 H68         3.8050    3.3030    2.0420 h1        1 MOL      0.129311
    159 H69         1.8120    1.7900    2.3510 hc        1 MOL      0.047159
    160 H70         2.6220    0.5490    1.4910 hc        1 MOL      0.047159
    161 H71         2.4870    1.9700   -0.6220 hc        1 MOL      0.034684
    162 H72         1.6150    3.2090    0.3510 hc        1 MOL      0.034684
    163 N14         5.1350    0.2750    2.5840 n         1 MOL      0.033846
    164 C55         5.8620   -0.4090    3.6270 c3        1 MOL     -0.311861
    165 H73         6.9320   -0.3080    3.4480 h1        1 MOL      0.095557
    166 H74         5.6120    0.0300    4.5930 h1        1 MOL      0.095557
    167 H75         5.5920   -1.4650    3.6260 h1        1 MOL      0.095557
    168 H76         5.1360   -0.0520    1.6240 hn        1 MOL      0.015227
    169 Ca1        -1.7750   -0.2270   -1.3060 Ca        1 MOL      1.729563
    170 O24        -2.3230   -0.8510   -4.0800 oh        1 MOL     -0.824060
    171 H77        -2.8040   -0.0790   -4.3870 ho        1 MOL      0.389582
    172 H78        -2.1940   -1.3820   -4.8670 ho        1 MOL      0.389582
    173 O25        -1.3690   -2.8560   -2.2520 oh        1 MOL     -0.824060
    174 H79        -0.9860   -3.1580   -3.0730 ho        1 MOL      0.389582
    175 H80        -1.5680   -3.6610   -1.7750 ho        1 MOL      0.389582
@<TRIPOS>BOND
     1    1    2 1   
     2    1    4 1   
     3    1    5 1   
     4    1    6 1   
     5    2    3 2   
     6    2    7 1   
     7    7    8 1   
     8    7   15 1   
     9    8    9 1   
    10    8   11 1   
    11    8   16 1   
    12    9   10 2   
    13    9   19 1   
    14   11   12 1   
    15   11   17 1   
    16   11   18 1   
    17   12   13 1   
    18   12   14 1   
    19   19   20 1   
    20   19   24 1   
    21   20   21 1   
    22   20   23 1   
    23   20   25 1   
    24   21   22 2   
    25   21   29 1   
    26   23   26 1   
    27   23   27 1   
    28   23   28 1   
    29   29   30 1   
    30   29   37 1   
    31   30   31 1   
    32   30   33 1   
    33   30   38 1   
    34   31   32 2   
    35   31   41 1   
    36   33   34 1   
    37   33   39 1   
    38   33   40 1   
    39   34   35 1   
    40   34   36 1   
    41   41   42 1   
    42   41   45 1   
    43   42   43 1   
    44   42   46 1   
    45   42   47 1   
    46   43   44 2   
    47   43   48 1   
    48   48   49 1   
    49   48   56 1   
    50   49   50 1   
    51   49   52 1   
    52   49   57 1   
    53   50   51 2   
    54   50   62 1   
    55   52   53 1   
    56   52   58 1   
    57   52   59 1   
    58   53   54 1   
    59   53   55 2   
    60   54   60 1   
    61   54   61 1   
    62   62   63 1   
    63   62   66 1   
    64   63   64 1   
    65   63   67 1   
    66   63   68 1   
    67   64   65 2   
    68   64   69 1   
    69   69   70 1   
    70   69   76 1   
    71   70   71 1   
    72   70   73 1   
    73   70   77 1   
    74   71   72 2   
    75   71   83 1   
    76   73   74 1   
    77   73   75 1   
    78   73   78 1   
    79   74   80 1   
    80   74   81 1   
    81   74   82 1   
    82   75   79 1   
    83   83   84 1   
    84   83   91 1   
    85   84   85 1   
    86   84   87 1   
    87   84   92 1   
    88   85   86 2   
    89   85  102 1   
    90   87   88 1   
    91   87   89 1   
    92   87   93 1   
    93   88   90 1   
    94   88   94 1   
    95   88   95 1   
    96   89   96 1   
    97   89   97 1   
    98   89   98 1   
    99   90   99 1   
   100   90  100 1   
   101   90  101 1   
   102  102  103 1   
   103  102  110 1   
   104  103  104 1   
   105  103  106 1   
   106  103  111 1   
   107  104  105 2   
   108  104  114 1   
   109  106  107 1   
   110  106  112 1   
   111  106  113 1   
   112  107  108 1   
   113  107  109 1   
   114  114  115 1   
   115  114  125 1   
   116  115  116 1   
   117  115  118 1   
   118  115  126 1   
   119  116  117 2   
   120  116  134 1   
   121  118  119 1   
   122  118  127 1   
   123  118  128 1   
   124  119  120 ar  
   125  119  121 ar  
   126  120  122 ar  
   127  120  129 1   
   128  121  123 ar  
   129  121  130 1   
   130  122  124 ar  
   131  122  131 1   
   132  123  124 ar  
   133  123  132 1   
   134  124  133 1   
   135  134  135 1   
   136  134  140 1   
   137  135  136 1   
   138  135  138 1   
   139  135  141 1   
   140  136  137 2   
   141  136  148 1   
   142  138  139 1   
   143  138  142 1   
   144  138  143 1   
   145  139  140 1   
   146  139  144 1   
   147  139  145 1   
   148  140  146 1   
   149  140  147 1   
   150  148  149 1   
   151  148  157 1   
   152  149  150 1   
   153  149  152 1   
   154  149  158 1   
   155  150  151 2   
   156  150  163 1   
   157  152  153 1   
   158  152  159 1   
   159  152  160 1   
   160  153  154 1   
   161  153  161 1   
   162  153  162 1   
   163  154  155 1   
   164  154  156 1   
   165  163  164 1   
   166  163  168 1   
   167  164  165 1   
   168  164  166 1   
   169  164  167 1   
   170  170  171 1   
   171  170  172 1   
   172  173  174 1   
   173  173  175 1   
@<TRIPOS>SUBSTRUCTURE
     1 MOL         1 TEMP              0 ****  ****    0 ROOT
