@<TRIPOS>MOLECULE
MOL
  189   185     1     0     0
SMALL
resp


@<TRIPOS>ATOM
      1 C1         -0.5670    3.2060    5.8680 c3        1 MOL     -0.251219
      2 C2         -0.7340    2.9390    4.4170 c         1 MOL      0.736833
      3 O1          0.1540    3.1940    3.5910 o         1 MOL     -0.660217
      4 H1          0.3000    3.8480    6.0210 hc        1 MOL      0.058158
      5 H2         -1.4580    3.7020    6.2520 hc        1 MOL      0.058158
      6 H3         -0.4190    2.2640    6.3970 hc        1 MOL      0.058158
      7 N1         -1.8430    2.3640    4.0720 n         1 MOL     -0.508842
      8 C3         -2.2920    2.0420    2.7030 c3        1 MOL      0.072124
      9 C4         -2.6430    3.2690    1.8540 c         1 MOL      0.398532
     10 O2         -3.6490    3.9430    2.0420 o         1 MOL     -0.510470
     11 C5         -3.4190    0.9850    2.8330 c3        1 MOL     -0.108452
     12 C6         -4.0460    0.5040    1.5110 c         1 MOL      0.818221
     13 O3         -3.2860    0.4280    0.5360 o         1 MOL     -0.747736
     14 O4         -5.2540    0.1670    1.4700 o         1 MOL     -0.747736
     15 H4         -2.5420    2.1830    4.7730 hn        1 MOL      0.303870
     16 H5         -1.5010    1.5620    2.1260 h1        1 MOL      0.067111
     17 H6         -4.1840    1.4190    3.4810 hc        1 MOL      0.017700
     18 H7         -3.1140    0.1030    3.4050 hc        1 MOL      0.017700
     19 N2         -1.7730    3.6390    0.8760 n         1 MOL     -0.149277
     20 C7         -1.8320    4.8410    0.1480 c3        1 MOL     -0.052067
     21 C8         -3.0470    4.8360   -0.8130 c         1 MOL      0.430061
     22 O5         -3.3800    5.9100   -1.2980 o         1 MOL     -0.565968
     23 C9         -0.5240    5.0890   -0.6340 c3        1 MOL      0.084334
     24 C10         0.7470    5.4870    0.2230 c3        1 MOL     -0.081360
     25 C11         0.6690    6.7920    1.0890 c3        1 MOL     -0.095676
     26 C12         1.9260    6.9990    1.9250 c3        1 MOL      0.008048
     27 N3          3.1080    7.4040    1.1390 n4        1 MOL     -0.385894
     28 H8         -0.9510    3.0550    0.7670 hn        1 MOL      0.213961
     29 H9         -2.0220    5.7220    0.7570 h1        1 MOL      0.074946
     30 H10        -0.6110    5.9490   -1.2880 hc        1 MOL     -0.002554
     31 H11        -0.2980    4.2680   -1.3170 hc        1 MOL     -0.002554
     32 H12         1.5830    5.6070   -0.4670 hc        1 MOL      0.040752
     33 H13         0.9070    4.6170    0.8620 hc        1 MOL      0.040752
     34 H14        -0.1160    6.7380    1.8430 hc        1 MOL      0.064749
     35 H15         0.5160    7.7160    0.5310 hc        1 MOL      0.064749
     36 H16         2.0580    6.0130    2.3600 hx        1 MOL      0.112325
     37 H17         1.8680    7.7430    2.7240 hx        1 MOL      0.112325
     38 H18         3.1170    7.1460    0.1600 hn        1 MOL      0.329267
     39 H19         3.2320    8.4040    1.0720 hn        1 MOL      0.329267
     40 H20         3.9500    7.0360    1.5620 hn        1 MOL      0.329267
     41 N4         -3.5120    3.6840   -1.3000 n         1 MOL     -0.176310
     42 C13        -4.5240    3.5560   -2.3380 c3        1 MOL      0.089713
     43 C14        -5.8140    2.7830   -1.9820 c         1 MOL      0.445036
     44 O6         -6.6860    2.7140   -2.8330 o         1 MOL     -0.531008
     45 C15        -3.8200    3.0530   -3.6000 c3        1 MOL     -0.201521
     46 C16        -3.1090    1.7580   -3.4910 c         1 MOL      0.885739
     47 O7         -3.1240    1.1740   -2.3960 o         1 MOL     -0.805702
     48 O8         -2.2340    1.3740   -4.3350 o         1 MOL     -0.805702
     49 H21        -3.2530    2.8010   -0.8620 hn        1 MOL      0.086326
     50 H22        -4.9470    4.5260   -2.5870 h1        1 MOL      0.076894
     51 H23        -3.0130    3.7560   -3.8410 hc        1 MOL      0.045253
     52 H24        -4.4910    3.0860   -4.4660 hc        1 MOL      0.045253
     53 N5         -5.8740    2.2030   -0.8110 n         1 MOL     -0.285890
     54 C17        -7.1640    1.7670   -0.2150 c3        1 MOL     -0.240307
     55 C18        -7.5390    0.3280   -0.5400 c         1 MOL      0.538896
     56 O9         -8.6840   -0.0770   -0.2750 o         1 MOL     -0.582559
     57 H25        -5.0630    2.1590   -0.2020 hn        1 MOL      0.231360
     58 H26        -7.9450    2.4270   -0.5740 h1        1 MOL      0.140966
     59 H27        -7.2090    1.9000    0.8690 h1        1 MOL      0.140966
     60 N6         -6.6970   -0.4540   -1.1790 n         1 MOL     -0.332124
     61 C19        -6.8860   -1.9010   -1.4690 c3        1 MOL     -0.004356
     62 C20        -7.0060   -2.7440   -0.1380 c         1 MOL      0.428252
     63 O10        -7.5100   -3.8900   -0.2010 o         1 MOL     -0.523438
     64 C21        -5.8230   -2.5120   -2.4360 c3        1 MOL     -0.176549
     65 C22        -4.4030   -2.1690   -2.2230 c         1 MOL      0.615981
     66 O11        -3.7960   -2.3060   -1.1480 o         1 MOL     -0.688848
     67 O12        -3.7790   -1.6150   -3.1500 o         1 MOL     -0.688848
     68 H28        -5.7600   -0.0710   -1.2100 hn        1 MOL      0.307875
     69 H29        -7.8140   -2.1980   -1.9580 h1        1 MOL      0.107303
     70 H30        -6.0590   -2.1280   -3.4330 hc        1 MOL      0.074804
     71 H31        -5.9620   -3.5930   -2.4750 hc        1 MOL      0.074804
     72 N7         -6.5860   -2.2090    1.0480 n         1 MOL     -0.264475
     73 C23        -6.3190   -3.0270    2.2180 c3        1 MOL      0.002006
     74 C24        -5.0450   -3.8920    2.1850 c         1 MOL      0.566154
     75 O13        -4.9970   -4.9540    2.7330 o         1 MOL     -0.564021
     76 H32        -6.3660   -1.2180    1.1270 hn        1 MOL      0.293014
     77 H33        -7.1480   -3.7080    2.4170 h1        1 MOL      0.043293
     78 H34        -6.3130   -2.4240    3.1320 h1        1 MOL      0.043293
     79 N8         -3.9610   -3.4510    1.4980 n         1 MOL     -0.329586
     80 C25        -2.6980   -4.1700    1.3890 c3        1 MOL     -0.106242
     81 C26        -1.4620   -3.2070    1.2530 c         1 MOL      0.719944
     82 O14        -1.6650   -2.0110    0.9140 o         1 MOL     -0.711294
     83 C27        -2.6980   -5.1390    0.2020 c3        1 MOL      0.477859
     84 C28        -3.0790   -6.5610    0.6210 c3        1 MOL     -0.468812
     85 O15        -3.6360   -4.8650   -0.8230 oh        1 MOL     -0.642733
     86 H35        -4.0900   -2.6590    0.8870 hn        1 MOL      0.163320
     87 H36        -2.4580   -4.7760    2.2610 h1        1 MOL      0.088226
     88 H37        -1.7290   -5.1250   -0.2970 h1        1 MOL     -0.055652
     89 H38        -3.9000   -3.9480   -0.6810 ho        1 MOL      0.450679
     90 H39        -2.9750   -7.2740   -0.2000 hc        1 MOL      0.113160
     91 H40        -2.3430   -6.9220    1.3400 hc        1 MOL      0.113160
     92 H41        -4.0910   -6.5780    1.0180 hc        1 MOL      0.113160
     93 N9         -0.2720   -3.6700    1.5960 n         1 MOL     -0.649806
     94 C29         0.9630   -2.8780    1.7520 c3        1 MOL      0.121199
     95 C30         2.1280   -3.3910    0.9120 c         1 MOL      0.463888
     96 O16         2.7330   -4.4570    1.2530 o         1 MOL     -0.535304
     97 C31         1.3520   -2.7250    3.2440 c3        1 MOL      0.075518
     98 C32         0.1750   -1.9150    3.9430 c3        1 MOL      0.083914
     99 C33         2.7190   -2.0170    3.4370 c3        1 MOL     -0.371219
    100 C34         0.4460   -1.4570    5.3680 c3        1 MOL     -0.180314
    101 H42        -0.2360   -4.5890    2.0160 hn        1 MOL      0.317948
    102 H43         0.7430   -1.8430    1.4670 h1        1 MOL      0.099314
    103 H44         1.3340   -3.7050    3.7250 hc        1 MOL      0.009592
    104 H45        -0.6660   -2.6050    3.8790 hc        1 MOL      0.002235
    105 H46        -0.0940   -1.0460    3.3390 hc        1 MOL      0.002235
    106 H47         2.5750   -0.9860    3.1240 hc        1 MOL      0.097056
    107 H48         2.9650   -2.0820    4.5020 hc        1 MOL      0.097056
    108 H49         3.5230   -2.5500    2.9410 hc        1 MOL      0.097056
    109 H50         0.5300   -2.3620    5.9720 hc        1 MOL      0.045756
    110 H51         1.3630   -0.8840    5.4900 hc        1 MOL      0.045756
    111 H52        -0.3940   -0.8330    5.6950 hc        1 MOL      0.045756
    112 N10         2.4660   -2.6580   -0.1380 n         1 MOL     -0.270500
    113 C35         3.6530   -2.8940   -0.9800 c3        1 MOL     -0.019431
    114 C36         5.0080   -2.5170   -0.2500 c         1 MOL      0.341300
    115 O17         4.9750   -1.7870    0.7370 o         1 MOL     -0.306760
    116 C37         3.4060   -2.1120   -2.3160 c3        1 MOL      0.204621
    117 C38         2.4170   -2.7490   -3.2660 c3        1 MOL     -0.183386
    118 O18         3.0650   -0.7470   -2.1580 oh        1 MOL     -0.345535
    119 H53         2.0360   -1.7450   -0.1400 hn        1 MOL      0.215368
    120 H54         3.7620   -3.9450   -1.2480 h1        1 MOL      0.093075
    121 H55         4.3840   -2.0740   -2.8000 h1        1 MOL     -0.029699
    122 H56         2.1960   -0.7120   -1.7510 ho        1 MOL      0.187303
    123 H57         2.4060   -2.0230   -4.0800 hc        1 MOL      0.048503
    124 H58         2.8160   -3.6890   -3.6420 hc        1 MOL      0.048503
    125 H59         1.4260   -2.7750   -2.8200 hc        1 MOL      0.048503
    126 N11         6.1520   -2.8660   -0.8350 n         1 MOL     -0.276514
    127 C39         7.5270   -2.5420   -0.3290 c3        1 MOL      0.020110
    128 C40         7.6810   -1.0020   -0.1660 c         1 MOL      0.254111
    129 O19         8.2820   -0.5320    0.8060 o         1 MOL     -0.416716
    130 C41         8.5380   -3.0590   -1.3850 c3        1 MOL      0.299493
    131 C42         9.9610   -2.7080   -1.1840 c3        1 MOL     -0.430366
    132 O20         8.3790   -4.4140   -1.4850 oh        1 MOL     -0.589439
    133 H60         6.0950   -3.4760   -1.6400 hn        1 MOL      0.242445
    134 H61         7.6590   -2.9480    0.6670 h1        1 MOL      0.139992
    135 H62         8.2190   -2.5590   -2.2920 h1        1 MOL     -0.024309
    136 H63         9.1810   -4.6370   -1.9550 ho        1 MOL      0.406533
    137 H64        10.4250   -3.2300   -0.3490 hc        1 MOL      0.129268
    138 H65        10.4920   -3.1280   -2.0460 hc        1 MOL      0.129268
    139 H66        10.1090   -1.6260   -1.2490 hc        1 MOL      0.129268
    140 N12         7.2580   -0.2420   -1.2210 n         1 MOL     -0.220064
    141 C43         7.1500    1.2290   -1.2430 c3        1 MOL      0.006397
    142 C44         6.2880    1.8310   -0.2060 c         1 MOL      0.309720
    143 O21         6.5080    3.0090    0.1780 o         1 MOL     -0.526029
    144 C45         6.8360    1.7110   -2.6720 c3        1 MOL     -0.209177
    145 C46         5.2800    1.6600   -2.9630 c3        1 MOL      0.305820
    146 C47         5.0230    1.9440   -4.4090 c3        1 MOL     -0.116184
    147 C48         3.5440    2.0770   -4.8020 c3        1 MOL     -0.208394
    148 N13         2.8140    0.8060   -4.4460 n4        1 MOL     -0.314319
    149 H67         6.9090   -0.6790   -2.0630 hn        1 MOL      0.193121
    150 H68         8.1440    1.5660   -0.9340 h1        1 MOL      0.125598
    151 H69         7.4210    1.0230   -3.2790 hc        1 MOL      0.066633
    152 H70         7.2160    2.7250   -2.7940 hc        1 MOL      0.066633
    153 H71         4.8370    2.4250   -2.3320 hc        1 MOL     -0.046202
    154 H72         4.8890    0.6530   -2.7820 hc        1 MOL     -0.046202
    155 H73         5.5230    1.1520   -4.9690 hc        1 MOL      0.052359
    156 H74         5.4420    2.8830   -4.7550 hc        1 MOL      0.052359
    157 H75         3.2880    2.3090   -5.8330 hx        1 MOL      0.163240
    158 H76         3.1220    2.9010   -4.2170 hx        1 MOL      0.163240
    159 H77         2.9280    0.5940   -3.4680 hn        1 MOL      0.303863
    160 H78         1.8360    0.8900   -4.6950 hn        1 MOL      0.303863
    161 H79         3.1970    0.0620   -5.0190 hn        1 MOL      0.303863
    162 N14         5.3010    1.0930    0.2250 n         1 MOL      0.040418
    163 C49         4.3870    1.5080    1.2850 c3        1 MOL     -0.302690
    164 C50         4.9810    1.1670    2.7120 c         1 MOL      0.532473
    165 O22         4.7030    1.6990    3.7660 o         1 MOL     -0.532522
    166 C51         2.9650    0.8770    1.1230 c3        1 MOL      0.164202
    167 C52         2.1760    1.4970   -0.0710 c3        1 MOL      0.175338
    168 C53         0.8300    0.7920   -0.3250 c         1 MOL      0.563968
    169 O23         0.7280   -0.4080   -0.6400 o         1 MOL     -0.653905
    170 O24        -0.1240    1.5800   -0.2770 o         1 MOL     -0.653905
    171 H80         5.2900    0.1000    0.0140 hn        1 MOL     -0.011943
    172 H81         4.3120    2.5780    1.1000 h1        1 MOL      0.123859
    173 H82         2.3200    1.0270    1.9900 hc        1 MOL      0.012343
    174 H83         3.0230   -0.2110    1.1210 hc        1 MOL      0.012343
    175 H84         2.8230    1.3660   -0.9440 hc        1 MOL     -0.103351
    176 H85         1.9880    2.5420    0.1850 hc        1 MOL     -0.103351
    177 N15         5.9860    0.3060    2.7580 n         1 MOL     -0.175701
    178 C54         6.4190   -0.3410    4.0020 c3        1 MOL     -0.314490
    179 H86         7.3010    0.1700    4.3900 h1        1 MOL      0.124012
    180 H87         5.6160   -0.2870    4.7380 h1        1 MOL      0.124012
    181 H88         6.6620   -1.3850    3.8050 h1        1 MOL      0.124012
    182 H89         6.3190   -0.2550    1.9970 hn        1 MOL      0.168618
    183 Ca1        -1.8550   -0.6890   -1.3180 Ca        1 MOL      1.807654
    184 O25        -0.4780   -0.6900   -3.8310 oh        1 MOL     -0.842640
    185 H90        -0.1490   -1.0870   -4.6400 ho        1 MOL      0.403262
    186 H91        -1.0870   -0.0190   -4.1320 ho        1 MOL      0.403262
    187 O26        -1.0230   -3.2100   -2.3420 oh        1 MOL     -0.842640
    188 H92        -0.8540   -3.1610   -3.2880 ho        1 MOL      0.403262
    189 H93        -1.4100   -4.0730   -2.2030 ho        1 MOL      0.403262
@<TRIPOS>BOND
     1    1    2 1   
     2    1    4 1   
     3    1    5 1   
     4    1    6 1   
     5    2    3 2   
     6    2    7 1   
     7    7    8 1   
     8    7   15 1   
     9    8    9 1   
    10    8   11 1   
    11    8   16 1   
    12    9   10 2   
    13    9   19 1   
    14   11   12 1   
    15   11   17 1   
    16   11   18 1   
    17   12   13 1   
    18   12   14 1   
    19   19   20 1   
    20   19   28 1   
    21   20   21 1   
    22   20   23 1   
    23   20   29 1   
    24   21   22 2   
    25   21   41 1   
    26   23   24 1   
    27   23   30 1   
    28   23   31 1   
    29   24   25 1   
    30   24   32 1   
    31   24   33 1   
    32   25   26 1   
    33   25   34 1   
    34   25   35 1   
    35   26   27 1   
    36   26   36 1   
    37   26   37 1   
    38   27   38 1   
    39   27   39 1   
    40   27   40 1   
    41   41   42 1   
    42   41   49 1   
    43   42   43 1   
    44   42   45 1   
    45   42   50 1   
    46   43   44 2   
    47   43   53 1   
    48   45   46 1   
    49   45   51 1   
    50   45   52 1   
    51   46   47 1   
    52   46   48 1   
    53   53   54 1   
    54   53   57 1   
    55   54   55 1   
    56   54   58 1   
    57   54   59 1   
    58   55   56 2   
    59   55   60 1   
    60   60   61 1   
    61   60   68 1   
    62   61   62 1   
    63   61   64 1   
    64   61   69 1   
    65   62   63 2   
    66   62   72 1   
    67   64   65 1   
    68   64   70 1   
    69   64   71 1   
    70   65   66 1   
    71   65   67 1   
    72   72   73 1   
    73   72   76 1   
    74   73   74 1   
    75   73   77 1   
    76   73   78 1   
    77   74   75 2   
    78   74   79 1   
    79   79   80 1   
    80   79   86 1   
    81   80   81 1   
    82   80   83 1   
    83   80   87 1   
    84   81   82 2   
    85   81   93 1   
    86   83   84 1   
    87   83   85 1   
    88   83   88 1   
    89   84   90 1   
    90   84   91 1   
    91   84   92 1   
    92   85   89 1   
    93   93   94 1   
    94   93  101 1   
    95   94   95 1   
    96   94   97 1   
    97   94  102 1   
    98   95   96 2   
    99   95  112 1   
   100   97   98 1   
   101   97   99 1   
   102   97  103 1   
   103   98  100 1   
   104   98  104 1   
   105   98  105 1   
   106   99  106 1   
   107   99  107 1   
   108   99  108 1   
   109  100  109 1   
   110  100  110 1   
   111  100  111 1   
   112  112  113 1   
   113  112  119 1   
   114  113  114 1   
   115  113  116 1   
   116  113  120 1   
   117  114  115 2   
   118  114  126 1   
   119  116  117 1   
   120  116  118 1   
   121  116  121 1   
   122  117  123 1   
   123  117  124 1   
   124  117  125 1   
   125  118  122 1   
   126  126  127 1   
   127  126  133 1   
   128  127  128 1   
   129  127  130 1   
   130  127  134 1   
   131  128  129 2   
   132  128  140 1   
   133  130  131 1   
   134  130  132 1   
   135  130  135 1   
   136  131  137 1   
   137  131  138 1   
   138  131  139 1   
   139  132  136 1   
   140  140  141 1   
   141  140  149 1   
   142  141  142 1   
   143  141  144 1   
   144  141  150 1   
   145  142  143 2   
   146  142  162 1   
   147  144  145 1   
   148  144  151 1   
   149  144  152 1   
   150  145  146 1   
   151  145  153 1   
   152  145  154 1   
   153  146  147 1   
   154  146  155 1   
   155  146  156 1   
   156  147  148 1   
   157  147  157 1   
   158  147  158 1   
   159  148  159 1   
   160  148  160 1   
   161  148  161 1   
   162  162  163 1   
   163  162  171 1   
   164  163  164 1   
   165  163  166 1   
   166  163  172 1   
   167  164  165 2   
   168  164  177 1   
   169  166  167 1   
   170  166  173 1   
   171  166  174 1   
   172  167  168 1   
   173  167  175 1   
   174  167  176 1   
   175  168  169 1   
   176  168  170 1   
   177  177  178 1   
   178  177  182 1   
   179  178  179 1   
   180  178  180 1   
   181  178  181 1   
   182  184  185 1   
   183  184  186 1   
   184  187  188 1   
   185  187  189 1   
@<TRIPOS>SUBSTRUCTURE
     1 MOL         1 TEMP              0 ****  ****    0 ROOT
