@<TRIPOS>MOLECULE
MOL
  189   185     1     0     0
SMALL
resp


@<TRIPOS>ATOM
      1 C1          0.4980    4.4620   -4.9190 c3        1 MOL     -0.392319
      2 C2          0.7120    3.5550   -3.7020 c         1 MOL      0.766804
      3 O1         -0.1810    3.5010   -2.8440 o         1 MOL     -0.643928
      4 H1          1.0410    4.0580   -5.7740 hc        1 MOL      0.092493
      5 H2         -0.5650    4.5110   -5.1550 hc        1 MOL      0.092493
      6 H3          0.8670    5.4640   -4.6970 hc        1 MOL      0.092493
      7 N1          1.9040    3.0240   -3.5530 n         1 MOL     -0.637685
      8 C3          2.3300    2.4840   -2.2350 c3        1 MOL      0.051525
      9 C4          2.6670    3.5840   -1.2370 c         1 MOL      0.562094
     10 O2          3.4720    4.4800   -1.5560 o         1 MOL     -0.596304
     11 C5          3.5260    1.4950   -2.4190 c3        1 MOL     -0.134506
     12 C6          3.9110    0.7740   -1.1530 c         1 MOL      0.802029
     13 O3          5.0880    0.2770   -1.0560 o         1 MOL     -0.756150
     14 O4          3.1410    0.8130   -0.1740 o         1 MOL     -0.756150
     15 H4          2.5650    3.0500   -4.3220 hn        1 MOL      0.354695
     16 H5          1.5280    1.8380   -1.8790 h1        1 MOL      0.031067
     17 H6          4.4360    2.0310   -2.6920 hc        1 MOL      0.046829
     18 H7          3.3320    0.7650   -3.1990 hc        1 MOL      0.046829
     19 N2          2.0840    3.5140   -0.0630 n         1 MOL     -0.103208
     20 C7          2.2370    4.5600    0.9050 c3        1 MOL     -0.017002
     21 C8          3.0350    4.3310    2.1150 c         1 MOL      0.502299
     22 O5          3.3180    5.3420    2.8120 o         1 MOL     -0.584212
     23 C9          0.7560    4.9790    1.3720 c3        1 MOL     -0.049188
     24 C10        -0.1200    5.6060    0.2640 c3        1 MOL      0.171541
     25 C11         0.4370    6.9190   -0.4410 c3        1 MOL     -0.284877
     26 C12        -0.5760    7.9220   -1.1400 c3        1 MOL      0.050476
     27 N3         -0.8280    7.5360   -2.5440 n4        1 MOL     -0.358703
     28 H8          1.4540    2.7490    0.1310 hn        1 MOL      0.198687
     29 H9          2.6700    5.4650    0.4850 h1        1 MOL      0.050441
     30 H10         0.7880    5.6990    2.1930 hc        1 MOL      0.022982
     31 H11         0.1730    4.1170    1.6820 hc        1 MOL      0.022982
     32 H12        -1.1210    5.7900    0.6420 hc        1 MOL     -0.015255
     33 H13        -0.1690    4.8770   -0.5410 hc        1 MOL     -0.015255
     34 H14         1.2780    6.6310   -1.0630 hc        1 MOL      0.096636
     35 H15         0.8580    7.5200    0.3710 hc        1 MOL      0.096636
     36 H16        -0.1680    8.9380   -1.1360 hx        1 MOL      0.092988
     37 H17        -1.5360    8.0170   -0.6440 hx        1 MOL      0.092988
     38 H18        -1.3630    8.2390   -3.0260 hn        1 MOL      0.326524
     39 H19         0.0620    7.3680   -3.0070 hn        1 MOL      0.326524
     40 H20        -1.2590    6.6250   -2.5660 hn        1 MOL      0.326524
     41 N4          3.4850    3.1180    2.3950 n         1 MOL     -0.290885
     42 C13         4.3640    2.8300    3.5060 c3        1 MOL     -0.029168
     43 C14         5.6760    2.0690    3.1260 c         1 MOL      0.455470
     44 O6          6.5190    1.9300    3.9700 o         1 MOL     -0.521314
     45 C15         3.6900    2.0540    4.6150 c3        1 MOL     -0.062059
     46 C16         2.7940    0.8160    4.2860 c         1 MOL      0.724915
     47 O7          2.6640    0.3930    3.1060 o         1 MOL     -0.687499
     48 O8          2.2540    0.2870    5.2900 o         1 MOL     -0.687499
     49 H21         3.0730    2.3900    1.8360 hn        1 MOL      0.093419
     50 H22         4.8110    3.7180    3.9370 h1        1 MOL      0.113123
     51 H23         3.0130    2.7080    5.1500 hc        1 MOL      0.025811
     52 H24         4.3950    1.8940    5.4300 hc        1 MOL      0.025811
     53 N5          5.8640    1.6930    1.8540 n         1 MOL     -0.161374
     54 C17         7.0960    1.3290    1.2800 c3        1 MOL     -0.351917
     55 C18         7.4740   -0.1130    1.2090 c         1 MOL      0.569718
     56 O9          8.6730   -0.4040    0.9280 o         1 MOL     -0.577607
     57 H25         5.1130    1.9640    1.2250 hn        1 MOL      0.198867
     58 H26         7.8420    1.8350    1.9070 h1        1 MOL      0.151013
     59 H27         7.1480    1.7340    0.2730 h1        1 MOL      0.151013
     60 N6          6.5700   -1.0310    1.6280 n         1 MOL     -0.194063
     61 C19         6.7770   -2.4220    1.5710 c3        1 MOL     -0.045545
     62 C20         6.7610   -3.0060    0.1670 c         1 MOL      0.453556
     63 O10         7.1270   -4.1350   -0.0860 o         1 MOL     -0.562553
     64 C21         5.8320   -3.2080    2.5600 c3        1 MOL     -0.393031
     65 C22         4.3410   -2.9650    2.4620 c         1 MOL      0.868882
     66 O11         3.6290   -3.4300    3.3620 o         1 MOL     -0.704936
     67 O12         3.8350   -2.1460    1.7040 o         1 MOL     -0.704936
     68 H28         5.6290   -0.7220    1.8400 hn        1 MOL      0.158863
     69 H29         7.8350   -2.5790    1.8020 h1        1 MOL      0.096300
     70 H30         5.9510   -2.7420    3.5460 hc        1 MOL      0.123992
     71 H31         5.9900   -4.2820    2.5790 hc        1 MOL      0.123992
     72 N7          6.2150   -2.2930   -0.7640 n         1 MOL     -0.142990
     73 C23         6.2910   -2.5950   -2.2050 c3        1 MOL     -0.122487
     74 C24         5.1150   -3.3980   -2.7690 c         1 MOL      0.540573
     75 O13         5.2510   -4.0910   -3.7460 o         1 MOL     -0.571933
     76 H32         5.8680   -1.3820   -0.4840 hn        1 MOL      0.231072
     77 H33         7.2380   -3.0720   -2.4450 h1        1 MOL      0.081634
     78 H34         6.3220   -1.6640   -2.7790 h1        1 MOL      0.081634
     79 N8          4.0220   -3.3670   -2.0750 n         1 MOL     -0.174054
     80 C25         2.7220   -3.8150   -2.5200 c3        1 MOL     -0.082509
     81 C26         1.6100   -2.8160   -2.3190 c         1 MOL      0.787277
     82 O14         1.5860   -2.0630   -1.3760 o         1 MOL     -0.596401
     83 C27         2.3900   -5.2670   -2.0130 c3        1 MOL      0.390742
     84 C28         3.1970   -6.3470   -2.6680 c3        1 MOL     -0.457997
     85 O15         2.5130   -5.2970   -0.5780 oh        1 MOL     -0.584526
     86 H35         4.0290   -2.7810   -1.2570 hn        1 MOL      0.033038
     87 H36         2.8270   -3.8610   -3.6020 h1        1 MOL      0.037891
     88 H37         1.3280   -5.4960   -2.1240 h1        1 MOL      0.015965
     89 H38         3.2510   -5.8180   -0.2700 ho        1 MOL      0.383706
     90 H39         2.6610   -7.2430   -2.3350 hc        1 MOL      0.126408
     91 H40         3.1120   -6.3270   -3.7530 hc        1 MOL      0.126408
     92 H41         4.2120   -6.3790   -2.2780 hc        1 MOL      0.126408
     93 N9          0.5060   -2.8320   -3.1070 n         1 MOL     -0.689231
     94 C29        -0.6830   -2.0430   -2.8540 c3        1 MOL      0.109306
     95 C30        -1.7950   -2.7620   -2.0560 c         1 MOL      0.605274
     96 O16        -2.2430   -3.8580   -2.4690 o         1 MOL     -0.607898
     97 C31        -1.1620   -1.4330   -4.1890 c3        1 MOL      0.058731
     98 C32        -0.1490   -0.4090   -4.6070 c3        1 MOL      0.237164
     99 C33        -2.5500   -0.6960   -4.1920 c3        1 MOL     -0.056875
    100 C34        -0.1920   -0.1250   -6.0390 c3        1 MOL     -0.318709
    101 H42         0.5070   -3.4830   -3.8880 hn        1 MOL      0.299568
    102 H43        -0.4130   -1.2130   -2.2050 h1        1 MOL      0.060350
    103 H44        -1.2000   -2.1420   -5.0160 hc        1 MOL      0.022410
    104 H45         0.8470   -0.7810   -4.3920 hc        1 MOL     -0.039882
    105 H46        -0.2660    0.5150   -4.0420 hc        1 MOL     -0.039882
    106 H47        -2.5500    0.0920   -3.4430 hc        1 MOL     -0.002265
    107 H48        -2.8660   -0.2840   -5.1540 hc        1 MOL     -0.002265
    108 H49        -3.2170   -1.5300   -4.0040 hc        1 MOL     -0.002265
    109 H50         0.5370    0.6240   -6.3520 hc        1 MOL      0.063117
    110 H51        -0.1530   -0.9400   -6.7630 hc        1 MOL      0.063117
    111 H52        -1.1440    0.3910   -6.1750 hc        1 MOL      0.063117
    112 N10        -2.3520   -2.1310   -1.0430 n         1 MOL     -0.161718
    113 C35        -3.4610   -2.6250   -0.2210 c3        1 MOL     -0.049586
    114 C36        -4.8030   -2.3060   -0.8370 c         1 MOL      0.385768
    115 O17        -4.9770   -1.6070   -1.7810 o         1 MOL     -0.316027
    116 C37        -3.3470   -2.1660    1.2340 c3        1 MOL      0.087235
    117 C38        -1.9740   -2.5740    1.8090 c3        1 MOL     -0.194376
    118 O18        -3.5080   -0.7370    1.3280 oh        1 MOL     -0.315358
    119 H53        -1.9430   -1.2330   -0.8380 hn        1 MOL     -0.027583
    120 H54        -3.4830   -3.7170   -0.1910 h1        1 MOL      0.098749
    121 H55        -4.0800   -2.6300    1.8950 h1        1 MOL      0.019922
    122 H56        -3.0730   -0.4540    2.1280 ho        1 MOL      0.361531
    123 H57        -1.3050   -1.7300    1.6030 hc        1 MOL      0.068730
    124 H58        -2.0420   -2.4710    2.8910 hc        1 MOL      0.068730
    125 H59        -1.6150   -3.5610    1.5250 hc        1 MOL      0.068730
    126 N11        -5.8620   -2.8720   -0.2150 n         1 MOL     -0.321067
    127 C39        -7.2670   -2.3100   -0.4220 c3        1 MOL     -0.259290
    128 C40        -7.3840   -0.8130   -0.1300 c         1 MOL      0.360855
    129 O19        -7.7520   -0.0250   -0.9760 o         1 MOL     -0.450574
    130 C41        -8.3560   -3.0050    0.4250 c3        1 MOL      0.518668
    131 C42        -8.7600   -4.3320   -0.2340 c3        1 MOL     -0.488234
    132 O20        -7.7890   -3.2570    1.7150 oh        1 MOL     -0.622726
    133 H60        -5.7230   -3.6590    0.3980 hn        1 MOL      0.273805
    134 H61        -7.5370   -2.5290   -1.4490 h1        1 MOL      0.152867
    135 H62        -9.1950   -2.3340    0.5850 h1        1 MOL      0.002385
    136 H63        -8.4730   -3.0660    2.3650 ho        1 MOL      0.302928
    137 H64        -7.9420   -4.7990   -0.7690 hc        1 MOL      0.136775
    138 H65        -9.2000   -4.9490    0.5570 hc        1 MOL      0.136775
    139 H66        -9.6030   -4.0390   -0.8640 hc        1 MOL      0.136775
    140 N12        -6.8900   -0.4140    1.0410 n         1 MOL     -0.201256
    141 C43        -6.8950    0.9880    1.5600 c3        1 MOL     -0.004282
    142 C44        -6.1500    1.9860    0.5160 c         1 MOL      0.369244
    143 O21        -6.5480    3.0860    0.2420 o         1 MOL     -0.471115
    144 C45        -6.3000    1.1630    3.0260 c3        1 MOL     -0.082999
    145 C46        -7.2340    0.4260    3.9960 c3        1 MOL      0.044108
    146 C47        -6.4680   -0.0100    5.2990 c3        1 MOL      0.077013
    147 C48        -7.2610   -0.9030    6.2420 c3        1 MOL     -0.211031
    148 N13        -7.6360   -2.1760    5.6490 n4        1 MOL     -0.246784
    149 H67        -6.6320   -1.1430    1.6880 hn        1 MOL      0.205723
    150 H68        -7.8950    1.4320    1.5160 h1        1 MOL      0.080813
    151 H69        -6.2230    2.2040    3.3040 hc        1 MOL      0.075035
    152 H70        -5.2990    0.7440    3.1280 hc        1 MOL      0.075035
    153 H71        -7.5670   -0.4840    3.5020 hc        1 MOL     -0.027775
    154 H72        -8.1150    1.0180    4.2470 hc        1 MOL     -0.027775
    155 H73        -6.1770    0.8630    5.8940 hc        1 MOL      0.013416
    156 H74        -5.5240   -0.4590    4.9710 hc        1 MOL      0.013416
    157 H75        -8.1510   -0.3050    6.4500 hx        1 MOL      0.163304
    158 H76        -6.7640   -0.9790    7.2070 hx        1 MOL      0.163304
    159 H77        -6.8920   -2.7260    5.2430 hn        1 MOL      0.276020
    160 H78        -8.1420   -2.7650    6.2880 hn        1 MOL      0.276020
    161 H79        -8.2830   -1.9370    4.9160 hn        1 MOL      0.276020
    162 N14        -4.9160    1.5640    0.0260 n         1 MOL     -0.037428
    163 C49        -4.0290    2.3090   -0.9010 c3        1 MOL     -0.118949
    164 C50        -4.7040    2.3720   -2.2910 c         1 MOL      0.451495
    165 O22        -4.6470    3.4440   -2.9250 o         1 MOL     -0.550933
    166 C51        -2.7500    1.4910   -1.0890 c3        1 MOL      0.009508
    167 C52        -1.9030    1.7490    0.1940 c3        1 MOL      0.158324
    168 C53        -0.5680    0.8880    0.2510 c         1 MOL      0.561904
    169 O23         0.3900    1.3070    0.8730 o         1 MOL     -0.626855
    170 O24        -0.4640   -0.3000   -0.0890 o         1 MOL     -0.626855
    171 H80        -4.5950    0.6590    0.3330 hn        1 MOL     -0.142207
    172 H81        -3.8480    3.3580   -0.6610 h1        1 MOL      0.087648
    173 H82        -2.1290    1.8730   -1.9070 hc        1 MOL      0.069479
    174 H83        -2.9500    0.4330   -1.2340 hc        1 MOL      0.069479
    175 H84        -2.3970    1.6390    1.1560 hc        1 MOL     -0.075187
    176 H85        -1.6050    2.7970    0.1100 hc        1 MOL     -0.075187
    177 N15        -5.3550    1.2330   -2.7410 n         1 MOL     -0.057851
    178 C54        -6.1480    1.3150   -4.0350 c3        1 MOL     -0.292797
    179 H86        -5.4640    1.4730   -4.8700 h1        1 MOL      0.109031
    180 H87        -6.6940    0.3850   -4.1870 h1        1 MOL      0.109031
    181 H88        -6.8510    2.1460   -3.9790 h1        1 MOL      0.109031
    182 H89        -5.2560    0.2890   -2.3700 hn        1 MOL      0.121742
    183 Ca1         1.7550   -0.8560    1.1910 Ca        1 MOL      1.733746
    184 O25         0.4460   -1.0790    3.7150 oh        1 MOL     -0.894280
    185 H90         1.0600   -0.7820    4.3880 ho        1 MOL      0.401578
    186 H91        -0.0520   -1.7820    4.1390 ho        1 MOL      0.401578
    187 O26         1.3660   -3.7120    1.4640 oh        1 MOL     -0.894280
    188 H92         1.8180   -4.3800    0.9600 ho        1 MOL      0.401578
    189 H93         1.6390   -3.8610    2.3730 ho        1 MOL      0.401578
@<TRIPOS>BOND
     1    1    2 1   
     2    1    4 1   
     3    1    5 1   
     4    1    6 1   
     5    2    3 2   
     6    2    7 1   
     7    7    8 1   
     8    7   15 1   
     9    8    9 1   
    10    8   11 1   
    11    8   16 1   
    12    9   10 2   
    13    9   19 1   
    14   11   12 1   
    15   11   17 1   
    16   11   18 1   
    17   12   13 1   
    18   12   14 1   
    19   19   20 1   
    20   19   28 1   
    21   20   21 1   
    22   20   23 1   
    23   20   29 1   
    24   21   22 2   
    25   21   41 1   
    26   23   24 1   
    27   23   30 1   
    28   23   31 1   
    29   24   25 1   
    30   24   32 1   
    31   24   33 1   
    32   25   26 1   
    33   25   34 1   
    34   25   35 1   
    35   26   27 1   
    36   26   36 1   
    37   26   37 1   
    38   27   38 1   
    39   27   39 1   
    40   27   40 1   
    41   41   42 1   
    42   41   49 1   
    43   42   43 1   
    44   42   45 1   
    45   42   50 1   
    46   43   44 2   
    47   43   53 1   
    48   45   46 1   
    49   45   51 1   
    50   45   52 1   
    51   46   47 1   
    52   46   48 1   
    53   53   54 1   
    54   53   57 1   
    55   54   55 1   
    56   54   58 1   
    57   54   59 1   
    58   55   56 2   
    59   55   60 1   
    60   60   61 1   
    61   60   68 1   
    62   61   62 1   
    63   61   64 1   
    64   61   69 1   
    65   62   63 2   
    66   62   72 1   
    67   64   65 1   
    68   64   70 1   
    69   64   71 1   
    70   65   66 1   
    71   65   67 1   
    72   72   73 1   
    73   72   76 1   
    74   73   74 1   
    75   73   77 1   
    76   73   78 1   
    77   74   75 2   
    78   74   79 1   
    79   79   80 1   
    80   79   86 1   
    81   80   81 1   
    82   80   83 1   
    83   80   87 1   
    84   81   82 2   
    85   81   93 1   
    86   83   84 1   
    87   83   85 1   
    88   83   88 1   
    89   84   90 1   
    90   84   91 1   
    91   84   92 1   
    92   85   89 1   
    93   93   94 1   
    94   93  101 1   
    95   94   95 1   
    96   94   97 1   
    97   94  102 1   
    98   95   96 2   
    99   95  112 1   
   100   97   98 1   
   101   97   99 1   
   102   97  103 1   
   103   98  100 1   
   104   98  104 1   
   105   98  105 1   
   106   99  106 1   
   107   99  107 1   
   108   99  108 1   
   109  100  109 1   
   110  100  110 1   
   111  100  111 1   
   112  112  113 1   
   113  112  119 1   
   114  113  114 1   
   115  113  116 1   
   116  113  120 1   
   117  114  115 2   
   118  114  126 1   
   119  116  117 1   
   120  116  118 1   
   121  116  121 1   
   122  117  123 1   
   123  117  124 1   
   124  117  125 1   
   125  118  122 1   
   126  126  127 1   
   127  126  133 1   
   128  127  128 1   
   129  127  130 1   
   130  127  134 1   
   131  128  129 2   
   132  128  140 1   
   133  130  131 1   
   134  130  132 1   
   135  130  135 1   
   136  131  137 1   
   137  131  138 1   
   138  131  139 1   
   139  132  136 1   
   140  140  141 1   
   141  140  149 1   
   142  141  142 1   
   143  141  144 1   
   144  141  150 1   
   145  142  143 2   
   146  142  162 1   
   147  144  145 1   
   148  144  151 1   
   149  144  152 1   
   150  145  146 1   
   151  145  153 1   
   152  145  154 1   
   153  146  147 1   
   154  146  155 1   
   155  146  156 1   
   156  147  148 1   
   157  147  157 1   
   158  147  158 1   
   159  148  159 1   
   160  148  160 1   
   161  148  161 1   
   162  162  163 1   
   163  162  171 1   
   164  163  164 1   
   165  163  166 1   
   166  163  172 1   
   167  164  165 2   
   168  164  177 1   
   169  166  167 1   
   170  166  173 1   
   171  166  174 1   
   172  167  168 1   
   173  167  175 1   
   174  167  176 1   
   175  168  169 1   
   176  168  170 1   
   177  177  178 1   
   178  177  182 1   
   179  178  179 1   
   180  178  180 1   
   181  178  181 1   
   182  184  185 1   
   183  184  186 1   
   184  187  188 1   
   185  187  189 1   
@<TRIPOS>SUBSTRUCTURE
     1 MOL         1 TEMP              0 ****  ****    0 ROOT
