@<TRIPOS>MOLECULE
MOL
  179   176     1     0     0
SMALL
resp


@<TRIPOS>ATOM
      1 C1         -1.8720   -3.2510    6.7810 c3        1 MOL     -0.307906
      2 C2         -1.7190   -2.4770    5.4730 c         1 MOL      0.780847
      3 O1         -2.7090   -1.8150    5.2050 o         1 MOL     -0.560394
      4 H1         -2.5900   -2.7400    7.4220 hc        1 MOL      0.071979
      5 H2         -2.2270   -4.2590    6.5690 hc        1 MOL      0.071979
      6 H3         -0.9070   -3.3040    7.2870 hc        1 MOL      0.071979
      7 N1         -0.6090   -2.6160    4.7420 n         1 MOL     -0.684815
      8 C3         -0.5090   -2.3800    3.2760 c3        1 MOL     -0.045013
      9 C4         -0.9820   -3.5620    2.5070 c         1 MOL      0.697085
     10 O2         -1.0300   -4.6510    3.0380 o         1 MOL     -0.564337
     11 C5          0.9440   -2.1660    2.8410 c3        1 MOL      0.025651
     12 C6          1.0990   -1.7370    1.3770 c         1 MOL      0.689422
     13 O3          2.2320   -1.7570    0.8300 o         1 MOL     -0.755577
     14 O4          0.1670   -1.2500    0.7170 o         1 MOL     -0.755577
     15 H4          0.2240   -3.0510    5.1060 hn        1 MOL      0.352754
     16 H5         -1.1490   -1.5280    3.0520 h1        1 MOL      0.070862
     17 H6          1.5550   -3.0440    3.0430 hc        1 MOL      0.021649
     18 H7          1.3150   -1.3370    3.4410 hc        1 MOL      0.021649
     19 N2         -1.4110   -3.4640    1.2610 n         1 MOL     -0.353219
     20 C7         -1.9550   -4.6070    0.5390 c3        1 MOL     -0.359198
     21 C8         -0.9110   -5.5130   -0.1580 c         1 MOL      0.645545
     22 O5         -1.0770   -6.7100   -0.2710 o         1 MOL     -0.570072
     23 C9         -3.0500   -4.1660   -0.4210 c3        1 MOL      0.360342
     24 C10        -3.9170   -5.2390   -1.1240 c3        1 MOL     -0.192150
     25 C11        -4.9550   -4.6570   -2.1400 c3        1 MOL      0.059574
     26 C12        -5.6970   -5.7960   -2.8690 c3        1 MOL      0.140084
     27 N3         -6.3300   -5.2560   -4.0420 n4        1 MOL     -0.413227
     28 H8         -1.4480   -2.5460    0.8400 hn        1 MOL      0.209636
     29 H9         -2.4520   -5.2710    1.2480 h1        1 MOL      0.159763
     30 H10        -2.5030   -3.7330   -1.2530 hc        1 MOL     -0.036867
     31 H11        -3.6760   -3.3740   -0.0040 hc        1 MOL     -0.036867
     32 H12        -4.3390   -5.9150   -0.3740 hc        1 MOL      0.040542
     33 H13        -3.1520   -5.7560   -1.7060 hc        1 MOL      0.040542
     34 H14        -4.5100   -3.9800   -2.8690 hc        1 MOL      0.012226
     35 H15        -5.6460   -4.0610   -1.5570 hc        1 MOL      0.012226
     36 H16        -6.4930   -6.2220   -2.2580 hx        1 MOL      0.055523
     37 H17        -5.0240   -6.6280   -3.0700 hx        1 MOL      0.055523
     38 H18        -5.8120   -4.5530   -4.5540 hn        1 MOL      0.336535
     39 H19        -6.5870   -6.0000   -4.6820 hn        1 MOL      0.336535
     40 H20        -7.2280   -4.8760   -3.7750 hn        1 MOL      0.336535
     41 N4          0.2520   -4.9330   -0.5260 n         1 MOL     -0.417649
     42 C13         1.3460   -5.6930   -1.1150 c3        1 MOL      0.084296
     43 C14         2.7040   -5.5870   -0.3640 c         1 MOL      0.464093
     44 O6          3.6390   -6.3250   -0.5570 o         1 MOL     -0.541597
     45 C15         1.5250   -5.2850   -2.6130 c3        1 MOL     -0.163481
     46 C16         1.7290   -3.7740   -2.8450 c         1 MOL      0.711401
     47 O7          1.9190   -3.0870   -1.8220 o         1 MOL     -0.705074
     48 O8          1.4880   -3.3340   -4.0130 o         1 MOL     -0.705074
     49 H21         0.2390   -3.9190   -0.5970 hn        1 MOL      0.313113
     50 H22         1.1540   -6.7500   -1.2300 h1        1 MOL      0.078722
     51 H23         0.6290   -5.6110   -3.1320 hc        1 MOL      0.043662
     52 H24         2.3640   -5.8490   -3.0320 hc        1 MOL      0.043662
     53 N5          2.8560   -4.5660    0.4700 n         1 MOL     -0.093378
     54 C17         3.9780   -4.4690    1.3690 c3        1 MOL     -0.270718
     55 C18         5.2000   -3.8280    0.7190 c         1 MOL      0.551405
     56 O9          6.3640   -4.0730    1.1140 o         1 MOL     -0.591185
     57 H25         2.2630   -3.7520    0.3630 hn        1 MOL     -0.048438
     58 H26         4.2910   -5.4820    1.6120 h1        1 MOL      0.126507
     59 H27         3.6630   -3.8820    2.2270 h1        1 MOL      0.126507
     60 N6          4.9630   -2.9570   -0.2130 n         1 MOL     -0.032153
     61 C19         5.9940   -2.2510   -0.8680 c3        1 MOL     -0.347372
     62 C20         6.7220   -1.0430   -0.2630 c         1 MOL      0.554543
     63 O10         7.6440   -0.5290   -0.7990 o         1 MOL     -0.541746
     64 C21         5.5610   -1.9920   -2.3470 c3        1 MOL     -0.242052
     65 C22         4.8500   -0.6570   -2.5130 c         1 MOL      0.553517
     66 N7          5.2970    0.2310   -3.3330 n         1 MOL     -0.714861
     67 O11         3.8180   -0.3700   -1.8930 o         1 MOL     -0.572405
     68 H28         4.0200   -2.9080   -0.5810 hn        1 MOL      0.206495
     69 H29         6.7980   -2.9690   -1.0300 h1        1 MOL      0.185290
     70 H30         5.0260   -2.8720   -2.7100 hc        1 MOL      0.132937
     71 H31         6.4460   -2.0040   -2.9920 hc        1 MOL      0.132937
     72 H32         6.0670    0.0930   -3.9620 hn        1 MOL      0.359395
     73 H33         4.8790    1.1560   -3.2930 hn        1 MOL      0.359395
     74 N8          6.2520   -0.4340    0.8140 n         1 MOL     -0.206623
     75 C23         6.8370    0.6250    1.6590 c3        1 MOL     -0.096734
     76 C24         5.9470    1.8980    1.8410 c         1 MOL      0.479807
     77 O12         6.1620    2.6500    2.8040 o         1 MOL     -0.541043
     78 H34         5.4720   -0.9430    1.2050 hn        1 MOL      0.189613
     79 H35         7.7840    0.8720    1.1650 h1        1 MOL      0.094410
     80 H36         7.0850    0.1990    2.6310 h1        1 MOL      0.094410
     81 N9          4.9650    2.0570    0.9690 n         1 MOL     -0.354456
     82 C25         3.8160    3.0950    1.0250 c3        1 MOL      0.291033
     83 C26         2.3700    2.4260    1.0760 c         1 MOL      0.328901
     84 O13         2.1200    1.4590    0.3520 o         1 MOL     -0.555804
     85 C27         3.8940    4.0110   -0.2170 c3        1 MOL     -0.051596
     86 C28         5.2650    4.6640   -0.3500 ca        1 MOL     -0.013842
     87 C29         5.2790    6.0500    0.0040 ca        1 MOL     -0.112297
     88 C30         6.3290    4.0170   -1.0280 ca        1 MOL     -0.112297
     89 C31         6.4410    6.7640   -0.2950 ca        1 MOL     -0.331351
     90 C32         7.5080    4.8000   -1.2850 ca        1 MOL     -0.331351
     91 C33         7.5490    6.2200   -0.8980 ca        1 MOL      0.423419
     92 O14         8.6090    7.0010   -1.1500 oh        1 MOL     -0.510829
     93 H37         4.9330    1.3440    0.2690 hn        1 MOL      0.203124
     94 H38         3.9390    3.6950    1.9220 h1        1 MOL      0.023643
     95 H39         3.0480    4.7000   -0.1920 hc        1 MOL      0.017958
     96 H40         3.7880    3.4550   -1.1510 hc        1 MOL      0.017958
     97 H41         4.4300    6.5850    0.3880 ha        1 MOL      0.143685
     98 H42         6.3480    2.9920   -1.3920 ha        1 MOL      0.143685
     99 H43         6.5310    7.8070   -0.0210 ha        1 MOL      0.157970
    100 H44         8.3250    4.3130   -1.8000 ha        1 MOL      0.157970
    101 H45         9.3460    6.5710   -1.5800 ho        1 MOL      0.383301
    102 N10         1.4560    3.0740    1.6670 n         1 MOL     -0.427120
    103 C34         0.0100    2.7560    1.5230 c3        1 MOL      0.258694
    104 C35        -0.5730    3.9560    0.7800 c         1 MOL      0.508646
    105 O15        -0.2630    5.1110    1.0590 o         1 MOL     -0.566956
    106 C36        -0.6470    2.5410    2.9550 c3        1 MOL     -0.056809
    107 C37        -0.1330    1.2640    3.7050 c3        1 MOL      0.232071
    108 C38        -2.1390    2.4370    2.7880 c3        1 MOL     -0.177509
    109 C39        -0.5930    1.0740    5.0860 c3        1 MOL     -0.119039
    110 H46         1.8230    3.8900    2.1250 hn        1 MOL      0.266417
    111 H47        -0.1480    1.8290    0.9740 h1        1 MOL      0.000148
    112 H48        -0.4100    3.3590    3.6350 hc        1 MOL      0.013393
    113 H49         0.9450    1.3920    3.7310 hc        1 MOL     -0.027369
    114 H50        -0.4580    0.3990    3.1230 hc        1 MOL     -0.027369
    115 H51        -2.6530    2.3920    3.7500 hc        1 MOL      0.046874
    116 H52        -2.5160    3.3960    2.4300 hc        1 MOL      0.046874
    117 H53        -2.4690    1.6990    2.0580 hc        1 MOL      0.046874
    118 H54        -1.6690    0.9180    5.1790 hc        1 MOL      0.015597
    119 H55         0.0260    0.2560    5.4500 hc        1 MOL      0.015597
    120 H56        -0.2560    1.8730    5.7550 hc        1 MOL      0.015597
    121 N11        -1.5060    3.6700   -0.1480 n         1 MOL     -0.253961
    122 C40        -2.4960    4.5670   -0.7740 c3        1 MOL     -0.048080
    123 C41        -3.9260    4.3410   -0.1390 c         1 MOL      0.539703
    124 O16        -4.1440    3.3340    0.5910 o         1 MOL     -0.449787
    125 C42        -2.3690    4.3550   -2.2790 c3        1 MOL      0.233808
    126 O17        -2.4950    2.9810   -2.6990 oh        1 MOL     -0.581733
    127 H57        -1.6350    2.6900   -0.3150 hn        1 MOL      0.156184
    128 H58        -2.2820    5.6140   -0.5580 h1        1 MOL      0.065428
    129 H59        -1.4540    4.8540   -2.5830 h1        1 MOL     -0.001258
    130 H60        -3.1700    4.9810   -2.6610 h1        1 MOL     -0.001258
    131 H61        -1.7990    2.4540   -2.3030 ho        1 MOL      0.354048
    132 N12        -4.8430    5.3330   -0.2970 n         1 MOL     -0.565584
    133 C43        -6.2640    5.2630   -0.0140 c3        1 MOL      0.270854
    134 C44        -6.9080    3.9250   -0.4360 c         1 MOL      0.475862
    135 O18        -7.5760    3.3670    0.4290 o         1 MOL     -0.489037
    136 C45        -6.8360    6.5140   -0.6680 c3        1 MOL     -0.489196
    137 H62        -4.3570    6.1320   -0.6820 hn        1 MOL      0.312978
    138 H63        -6.5000    5.3420    1.0360 h1        1 MOL      0.061417
    139 H64        -6.8400    6.5940   -1.7560 hc        1 MOL      0.138659
    140 H65        -7.8240    6.5270   -0.2020 hc        1 MOL      0.138659
    141 H66        -6.3120    7.4100   -0.3270 hc        1 MOL      0.138659
    142 N13        -6.7740    3.4890   -1.7410 n         1 MOL     -0.529018
    143 C46        -7.3630    2.2110   -2.2670 c3        1 MOL      0.205953
    144 C47        -6.8230    0.9930   -1.4660 c         1 MOL      0.242236
    145 O19        -7.4750   -0.0860   -1.4050 o         1 MOL     -0.528737
    146 C48        -7.0130    2.1010   -3.7420 c3        1 MOL     -0.390690
    147 H67        -6.2280    4.0850   -2.3380 hn        1 MOL      0.311664
    148 H68        -8.4420    2.2220   -2.1370 h1        1 MOL      0.098996
    149 H69        -7.6590    2.7930   -4.2840 hc        1 MOL      0.115310
    150 H70        -5.9620    2.3460   -3.8950 hc        1 MOL      0.115310
    151 H71        -7.1750    1.1040   -4.1430 hc        1 MOL      0.115310
    152 N14        -5.6550    1.0900   -0.8330 n         1 MOL      0.132861
    153 C49        -5.0470    0.0820   -0.0310 c3        1 MOL     -0.260365
    154 C50        -5.6160    0.0960    1.3840 c         1 MOL      0.547705
    155 O20        -6.0270   -0.9080    1.9680 o         1 MOL     -0.538378
    156 C51        -3.5650    0.0200   -0.1520 c3        1 MOL     -0.071831
    157 C52        -3.1310   -0.2220   -1.6290 c3        1 MOL      0.094187
    158 C53        -1.6570   -0.1450   -1.8000 c         1 MOL      0.580200
    159 O21        -0.9990    0.9140   -1.6240 o         1 MOL     -0.652985
    160 O22        -1.0440   -1.1320   -2.2100 o         1 MOL     -0.652985
    161 H72        -5.1490    1.9310   -1.0580 hn        1 MOL      0.094758
    162 H73        -5.3450   -0.8970   -0.4090 h1        1 MOL      0.102093
    163 H74        -3.0890   -0.6100    0.5960 hc        1 MOL      0.061793
    164 H75        -3.1150    0.9910    0.0660 hc        1 MOL      0.061793
    165 H76        -3.6730    0.4360   -2.3040 hc        1 MOL     -0.036273
    166 H77        -3.4210   -1.2490   -1.8740 hc        1 MOL     -0.036273
    167 N15        -5.7800    1.3090    1.9720 n         1 MOL     -0.173118
    168 C54        -6.4080    1.4470    3.2750 c3        1 MOL     -0.289522
    169 H78        -7.4320    1.7970    3.1490 h1        1 MOL      0.114300
    170 H79        -6.4160    0.4800    3.7800 h1        1 MOL      0.114300
    171 H80        -5.8500    2.1660    3.8740 h1        1 MOL      0.114300
    172 H81        -5.4650    2.1640    1.5220 hn        1 MOL      0.174115
    173 Ca1         1.3330   -0.4010   -1.3620 Ca        1 MOL      1.762233
    174 O23         1.8470    2.2180   -2.3550 oh        1 MOL     -0.872581
    175 H82         2.5670    2.4420   -2.9390 ho        1 MOL      0.414955
    176 H83         1.4190    3.0490   -2.1680 ho        1 MOL      0.414955
    177 O24         1.8670   -0.5560   -4.1350 oh        1 MOL     -0.872581
    178 H84         2.6020   -0.3480   -4.7120 ho        1 MOL      0.414955
    179 H85         1.6800   -1.4800   -4.3190 ho        1 MOL      0.414955
@<TRIPOS>BOND
     1    1    2 1   
     2    1    4 1   
     3    1    5 1   
     4    1    6 1   
     5    2    3 2   
     6    2    7 1   
     7    7    8 1   
     8    7   15 1   
     9    8    9 1   
    10    8   11 1   
    11    8   16 1   
    12    9   10 2   
    13    9   19 1   
    14   11   12 1   
    15   11   17 1   
    16   11   18 1   
    17   12   13 1   
    18   12   14 1   
    19   19   20 1   
    20   19   28 1   
    21   20   21 1   
    22   20   23 1   
    23   20   29 1   
    24   21   22 2   
    25   21   41 1   
    26   23   24 1   
    27   23   30 1   
    28   23   31 1   
    29   24   25 1   
    30   24   32 1   
    31   24   33 1   
    32   25   26 1   
    33   25   34 1   
    34   25   35 1   
    35   26   27 1   
    36   26   36 1   
    37   26   37 1   
    38   27   38 1   
    39   27   39 1   
    40   27   40 1   
    41   41   42 1   
    42   41   49 1   
    43   42   43 1   
    44   42   45 1   
    45   42   50 1   
    46   43   44 2   
    47   43   53 1   
    48   45   46 1   
    49   45   51 1   
    50   45   52 1   
    51   46   47 1   
    52   46   48 1   
    53   53   54 1   
    54   53   57 1   
    55   54   55 1   
    56   54   58 1   
    57   54   59 1   
    58   55   56 2   
    59   55   60 1   
    60   60   61 1   
    61   60   68 1   
    62   61   62 1   
    63   61   64 1   
    64   61   69 1   
    65   62   63 2   
    66   62   74 1   
    67   64   65 1   
    68   64   70 1   
    69   64   71 1   
    70   65   66 1   
    71   65   67 2   
    72   66   72 1   
    73   66   73 1   
    74   74   75 1   
    75   74   78 1   
    76   75   76 1   
    77   75   79 1   
    78   75   80 1   
    79   76   77 2   
    80   76   81 1   
    81   81   82 1   
    82   81   93 1   
    83   82   83 1   
    84   82   85 1   
    85   82   94 1   
    86   83   84 2   
    87   83  102 1   
    88   85   86 1   
    89   85   95 1   
    90   85   96 1   
    91   86   87 ar  
    92   86   88 ar  
    93   87   89 ar  
    94   87   97 1   
    95   88   90 ar  
    96   88   98 1   
    97   89   91 ar  
    98   89   99 1   
    99   90   91 ar  
   100   90  100 1   
   101   91   92 1   
   102   92  101 1   
   103  102  103 1   
   104  102  110 1   
   105  103  104 1   
   106  103  106 1   
   107  103  111 1   
   108  104  105 2   
   109  104  121 1   
   110  106  107 1   
   111  106  108 1   
   112  106  112 1   
   113  107  109 1   
   114  107  113 1   
   115  107  114 1   
   116  108  115 1   
   117  108  116 1   
   118  108  117 1   
   119  109  118 1   
   120  109  119 1   
   121  109  120 1   
   122  121  122 1   
   123  121  127 1   
   124  122  123 1   
   125  122  125 1   
   126  122  128 1   
   127  123  124 2   
   128  123  132 1   
   129  125  126 1   
   130  125  129 1   
   131  125  130 1   
   132  126  131 1   
   133  132  133 1   
   134  132  137 1   
   135  133  134 1   
   136  133  136 1   
   137  133  138 1   
   138  134  135 2   
   139  134  142 1   
   140  136  139 1   
   141  136  140 1   
   142  136  141 1   
   143  142  143 1   
   144  142  147 1   
   145  143  144 1   
   146  143  146 1   
   147  143  148 1   
   148  144  145 2   
   149  144  152 1   
   150  146  149 1   
   151  146  150 1   
   152  146  151 1   
   153  152  153 1   
   154  152  161 1   
   155  153  154 1   
   156  153  156 1   
   157  153  162 1   
   158  154  155 2   
   159  154  167 1   
   160  156  157 1   
   161  156  163 1   
   162  156  164 1   
   163  157  158 1   
   164  157  165 1   
   165  157  166 1   
   166  158  159 1   
   167  158  160 1   
   168  167  168 1   
   169  167  172 1   
   170  168  169 1   
   171  168  170 1   
   172  168  171 1   
   173  174  175 1   
   174  174  176 1   
   175  177  178 1   
   176  177  179 1   
@<TRIPOS>SUBSTRUCTURE
     1 MOL         1 TEMP              0 ****  ****    0 ROOT
