@<TRIPOS>MOLECULE
MOL
  189   185     1     0     0
SMALL
resp


@<TRIPOS>ATOM
      1 C1         -0.1730    3.0570   -4.9420 c3        1 MOL     -0.312537
      2 C2          0.4080    2.7170   -3.5860 c         1 MOL      0.730418
      3 O1         -0.1460    3.0640   -2.5540 o         1 MOL     -0.621938
      4 H1         -0.5860    2.1560   -5.3960 hc        1 MOL      0.075019
      5 H2         -0.9640    3.7980   -4.8240 hc        1 MOL      0.075019
      6 H3          0.6100    3.4600   -5.5830 hc        1 MOL      0.075019
      7 N1          1.5550    2.0260   -3.6230 n         1 MOL     -0.605269
      8 C3          2.3460    1.6110   -2.4370 c3        1 MOL      0.131656
      9 C4          3.1950    2.8190   -2.0080 c         1 MOL      0.425467
     10 O2          4.3260    3.0880   -2.3710 o         1 MOL     -0.539877
     11 C5          3.1220    0.2910   -2.7280 c3        1 MOL      0.013948
     12 C6          3.9570   -0.0120   -1.4780 c         1 MOL      0.516603
     13 O3          4.9440   -0.7450   -1.5920 o         1 MOL     -0.616689
     14 O4          3.5050    0.2790   -0.3500 o         1 MOL     -0.616689
     15 H4          1.9780    1.9510   -4.5380 hn        1 MOL      0.307588
     16 H5          1.6180    1.3550   -1.6670 h1        1 MOL      0.009309
     17 H6          3.7720    0.3230   -3.5960 hc        1 MOL      0.007923
     18 H7          2.3890   -0.4990   -2.8710 hc        1 MOL      0.007923
     19 N2          2.5100    3.5430   -1.1240 n         1 MOL      0.022297
     20 C7          2.8920    4.7860   -0.5120 c3        1 MOL     -0.210023
     21 C8          3.3720    4.8220    0.9670 c         1 MOL      0.487261
     22 O5          3.7710    5.7920    1.5230 o         1 MOL     -0.567222
     23 C9          1.9380    5.9370   -0.8920 c3        1 MOL      0.046784
     24 C10         1.8620    6.2720   -2.3710 c3        1 MOL      0.068578
     25 C11         0.7610    7.2970   -2.6890 c3        1 MOL     -0.098121
     26 C12         0.9580    8.6260   -1.9990 c3        1 MOL      0.065735
     27 N3         -0.3140    9.2140   -1.4750 n4        1 MOL     -0.319973
     28 H8          1.5830    3.1550   -1.0110 hn        1 MOL      0.212731
     29 H9          3.7990    5.0640   -1.0430 h1        1 MOL      0.114030
     30 H10         2.1530    6.8420   -0.3280 hc        1 MOL      0.002523
     31 H11         0.9340    5.6950   -0.5470 hc        1 MOL      0.002523
     32 H12         1.6510    5.2980   -2.8090 hc        1 MOL     -0.007622
     33 H13         2.8460    6.5400   -2.7530 hc        1 MOL     -0.007622
     34 H14        -0.1620    6.8850   -2.2730 hc        1 MOL      0.051200
     35 H15         0.6540    7.5540   -3.7470 hc        1 MOL      0.051200
     36 H16         1.3220    9.3170   -2.7710 hx        1 MOL      0.068561
     37 H17         1.7090    8.5450   -1.2070 hx        1 MOL      0.068561
     38 H18        -0.9840    9.2840   -2.2240 hn        1 MOL      0.313592
     39 H19        -0.7990    8.7730   -0.6980 hn        1 MOL      0.313592
     40 H20        -0.0530   10.1330   -1.1670 hn        1 MOL      0.313592
     41 N4          3.5340    3.6870    1.5570 n         1 MOL     -0.202792
     42 C13         4.3600    3.4730    2.7280 c3        1 MOL      0.045437
     43 C14         5.5340    2.5110    2.3990 c         1 MOL      0.386564
     44 O6          6.4740    2.3500    3.1750 o         1 MOL     -0.503347
     45 C15         3.5720    3.1200    4.0360 c3        1 MOL     -0.325599
     46 C16         2.5780    1.9980    3.7090 c         1 MOL      0.925294
     47 O7          1.7030    1.8400    4.5900 o         1 MOL     -0.766731
     48 O8          2.7470    1.2120    2.7810 o         1 MOL     -0.766731
     49 H21         3.1780    2.9170    1.0170 hn        1 MOL      0.052657
     50 H22         4.7670    4.4210    3.0880 h1        1 MOL      0.106158
     51 H23         3.0580    4.0590    4.2640 hc        1 MOL      0.085655
     52 H24         4.2330    2.8170    4.8490 hc        1 MOL      0.085655
     53 N5          5.5320    1.9710    1.1260 n         1 MOL     -0.095709
     54 C17         6.7290    1.5740    0.3750 c3        1 MOL     -0.329046
     55 C18         7.3290    0.1930    0.8840 c         1 MOL      0.519201
     56 O9          8.5320   -0.0560    0.8280 o         1 MOL     -0.575587
     57 H25         4.7680    2.2210    0.5060 hn        1 MOL      0.139598
     58 H26         7.5340    2.2770    0.5870 h1        1 MOL      0.142459
     59 H27         6.5950    1.5790   -0.7070 h1        1 MOL      0.142459
     60 N6          6.4260   -0.6990    1.3090 n         1 MOL     -0.158568
     61 C19         6.7980   -2.0550    1.8590 c3        1 MOL     -0.027408
     62 C20         6.9980   -3.1650    0.8240 c         1 MOL      0.447376
     63 O10         7.4660   -4.2410    1.1660 o         1 MOL     -0.527889
     64 C21         5.7500   -2.4730    2.8910 c3        1 MOL     -0.244426
     65 C22         4.2510   -2.2400    2.5660 c         1 MOL      0.685474
     66 O11         3.4310   -1.7260    3.3250 o         1 MOL     -0.673968
     67 O12         3.8840   -2.4380    1.3730 o         1 MOL     -0.673968
     68 H28         5.5000   -0.4150    1.0220 hn        1 MOL      0.125545
     69 H29         7.7690   -1.9010    2.3190 h1        1 MOL      0.118929
     70 H30         5.9360   -1.9360    3.8280 hc        1 MOL      0.073781
     71 H31         5.8260   -3.5500    3.0420 hc        1 MOL      0.073781
     72 N7          6.5350   -2.8810   -0.4170 n         1 MOL     -0.272523
     73 C23         6.4490   -3.9040   -1.4220 c3        1 MOL     -0.064245
     74 C24         5.0620   -4.5190   -1.7240 c         1 MOL      0.567491
     75 O13         5.0250   -5.4260   -2.5180 o         1 MOL     -0.585541
     76 H32         6.0480   -2.0120   -0.6180 hn        1 MOL      0.233480
     77 H33         6.9770   -4.7920   -1.0950 h1        1 MOL      0.063737
     78 H34         6.8130   -3.5840   -2.3960 h1        1 MOL      0.063737
     79 N8          3.9840   -4.0550   -1.0880 n         1 MOL     -0.248141
     80 C25         2.5850   -4.6810   -1.0890 c3        1 MOL     -0.475591
     81 C26         1.5550   -3.6150   -1.1340 c         1 MOL      0.895893
     82 O14         1.7420   -2.5510   -0.5080 o         1 MOL     -0.683643
     83 C27         2.3300   -5.5030    0.1510 c3        1 MOL      0.543913
     84 C28         3.0670   -6.8910    0.1100 c3        1 MOL     -0.538155
     85 O15         2.5450   -4.7390    1.3300 oh        1 MOL     -0.663405
     86 H35         4.1000   -3.3100   -0.4160 hn        1 MOL      0.259751
     87 H36         2.4350   -5.1870   -2.0520 h1        1 MOL      0.154588
     88 H37         1.2480   -5.6430    0.2230 h1        1 MOL     -0.009708
     89 H38         3.1620   -4.0060    1.2570 ho        1 MOL      0.407989
     90 H39         4.1450   -6.8450    0.3010 hc        1 MOL      0.141937
     91 H40         2.6280   -7.5420    0.8610 hc        1 MOL      0.141937
     92 H41         2.9630   -7.4180   -0.8330 hc        1 MOL      0.141937
     93 N9          0.4310   -3.8430   -1.7690 n         1 MOL     -0.692864
     94 C29        -0.6810   -2.8860   -1.9370 c3        1 MOL      0.171475
     95 C30        -1.9500   -3.4450   -1.3340 c         1 MOL      0.561566
     96 O16        -2.2550   -4.5990   -1.7100 o         1 MOL     -0.572019
     97 C31        -0.8750   -2.5060   -3.3900 c3        1 MOL      0.359500
     98 C32         0.3290   -1.7980   -3.9970 c3        1 MOL      0.111291
     99 C33        -2.1570   -1.6480   -3.6260 c3        1 MOL     -0.718502
    100 C34         0.3490   -1.5960   -5.4610 c3        1 MOL     -0.134919
    101 H42         0.3020   -4.6770   -2.3270 hn        1 MOL      0.306410
    102 H43        -0.4430   -1.9830   -1.3760 h1        1 MOL      0.001573
    103 H44        -0.9620   -3.4750   -3.8910 hc        1 MOL     -0.058465
    104 H45         1.2250   -2.3570   -3.7370 hc        1 MOL     -0.019399
    105 H46         0.3330   -0.8020   -3.5640 hc        1 MOL     -0.019399
    106 H47        -2.0730   -0.8200   -2.9210 hc        1 MOL      0.152941
    107 H48        -2.1700   -1.3390   -4.6730 hc        1 MOL      0.152941
    108 H49        -3.0590   -2.2400   -3.5280 hc        1 MOL      0.152941
    109 H50         0.1770   -2.5460   -5.9650 hc        1 MOL      0.024122
    110 H51        -0.4380   -0.9250   -5.8160 hc        1 MOL      0.024122
    111 H52         1.3070   -1.2620   -5.8490 hc        1 MOL      0.024122
    112 N10        -2.6960   -2.6640   -0.5210 n         1 MOL     -0.318508
    113 C35        -3.8840   -3.1170    0.1960 c3        1 MOL     -0.003227
    114 C36        -5.1140   -2.7910   -0.5840 c         1 MOL      0.408802
    115 O17        -5.1840   -2.0850   -1.5960 o         1 MOL     -0.426468
    116 C37        -3.9610   -2.5930    1.6780 c3        1 MOL      0.267735
    117 C38        -2.8780   -3.0160    2.6380 c3        1 MOL     -0.529317
    118 O18        -4.0300   -1.2420    1.5880 oh        1 MOL     -0.540627
    119 H53        -2.3920   -1.7320   -0.2770 hn        1 MOL      0.250276
    120 H54        -4.0020   -4.1930    0.3250 h1        1 MOL      0.049308
    121 H55        -4.9040   -2.9790    2.0570 h1        1 MOL      0.018589
    122 H56        -3.1730   -0.8980    1.8820 ho        1 MOL      0.368205
    123 H57        -1.9480   -2.5120    2.4040 hc        1 MOL      0.160271
    124 H58        -3.1590   -2.8740    3.6780 hc        1 MOL      0.160271
    125 H59        -2.5770   -4.0570    2.4980 hc        1 MOL      0.160271
    126 N11        -6.2540   -3.2460   -0.0550 n         1 MOL     -0.303817
    127 C39        -7.5760   -2.6950   -0.4760 c3        1 MOL     -0.199251
    128 C40        -7.6540   -1.1690   -0.3740 c         1 MOL      0.317157
    129 O19        -8.1820   -0.4710   -1.3090 o         1 MOL     -0.489161
    130 C41        -8.6970   -3.3200    0.3790 c3        1 MOL      0.419249
    131 C42        -9.0470   -4.7490   -0.0010 c3        1 MOL     -0.333594
    132 O20        -8.5110   -3.1560    1.7490 oh        1 MOL     -0.663417
    133 H60        -6.2090   -3.9880    0.6230 hn        1 MOL      0.270158
    134 H61        -7.6440   -2.8720   -1.5540 h1        1 MOL      0.160632
    135 H62        -9.5800   -2.7300    0.1280 h1        1 MOL     -0.004965
    136 H63        -9.3750   -3.1210    2.1660 ho        1 MOL      0.414025
    137 H64        -9.2930   -4.7530   -1.0620 hc        1 MOL      0.088910
    138 H65        -8.1520   -5.3700    0.0980 hc        1 MOL      0.088910
    139 H66        -9.8620   -5.0870    0.6290 hc        1 MOL      0.088910
    140 N12        -7.0310   -0.6070    0.6320 n         1 MOL     -0.083783
    141 C43        -7.0630    0.8610    0.8290 c3        1 MOL     -0.183796
    142 C44        -6.1170    1.6480   -0.0150 c         1 MOL      0.374163
    143 O21        -6.4780    2.7120   -0.5080 o         1 MOL     -0.491700
    144 C45        -6.8180    1.1480    2.3740 c3        1 MOL     -0.124066
    145 C46        -7.4930    2.5180    2.6960 c3        1 MOL     -0.012768
    146 C47        -7.0740    3.1590    4.0180 c3        1 MOL     -0.044787
    147 C48        -7.5830    2.3260    5.1970 c3        1 MOL      0.132882
    148 N13        -7.2470    3.0470    6.4020 n4        1 MOL     -0.495160
    149 H67        -6.7530   -1.1960    1.3950 hn        1 MOL      0.207117
    150 H68        -8.0870    1.2290    0.6920 h1        1 MOL      0.139346
    151 H69        -5.7380    1.2370    2.5090 hc        1 MOL      0.042286
    152 H70        -7.2520    0.4410    3.0670 hc        1 MOL      0.042286
    153 H71        -8.5680    2.4600    2.5400 hc        1 MOL      0.052006
    154 H72        -7.3550    3.3750    2.0370 hc        1 MOL      0.052006
    155 H73        -7.5800    4.1270    4.0340 hc        1 MOL      0.041059
    156 H74        -5.9900    3.2600    4.1060 hc        1 MOL      0.041059
    157 H75        -7.0950    1.3510    5.1860 hx        1 MOL      0.060107
    158 H76        -8.6610    2.2210    5.0880 hx        1 MOL      0.060107
    159 H77        -7.3680    2.4300    7.1950 hn        1 MOL      0.361278
    160 H78        -6.2750    3.2910    6.3050 hn        1 MOL      0.361278
    161 H79        -7.8690    3.8330    6.5570 hn        1 MOL      0.361278
    162 N14        -4.8410    1.1670   -0.1910 n         1 MOL     -0.007544
    163 C49        -3.8780    1.8520   -1.0270 c3        1 MOL     -0.444834
    164 C50        -4.3160    1.8950   -2.5260 c         1 MOL      0.570168
    165 O22        -3.9430    2.8300   -3.2270 o         1 MOL     -0.547637
    166 C51        -2.5340    1.1740   -0.8460 c3        1 MOL      0.256468
    167 C52        -2.0010    1.5270    0.5150 c3        1 MOL     -0.339377
    168 C53        -0.6870    0.7830    0.6570 c         1 MOL      0.874295
    169 O23         0.3990    1.3950    0.7350 o         1 MOL     -0.797038
    170 O24        -0.6870   -0.4720    0.6220 o         1 MOL     -0.797038
    171 H80        -4.5900    0.3750    0.3740 hn        1 MOL      0.184209
    172 H81        -3.7340    2.8910   -0.7050 h1        1 MOL      0.155842
    173 H82        -1.8020    1.6250   -1.5080 hc        1 MOL      0.019765
    174 H83        -2.6600    0.1190   -1.0820 hc        1 MOL      0.019765
    175 H84        -2.6390    1.2090    1.3320 hc        1 MOL      0.066797
    176 H85        -1.7130    2.5770    0.5340 hc        1 MOL      0.066797
    177 N15        -5.1840    0.9430   -2.9690 n         1 MOL     -0.175755
    178 C54        -5.9580    1.0700   -4.2270 c3        1 MOL     -0.289243
    179 H86        -6.0590    0.0880   -4.6910 h1        1 MOL      0.114880
    180 H87        -6.9470    1.4710   -4.0070 h1        1 MOL      0.114880
    181 H88        -5.4360    1.7410   -4.9090 h1        1 MOL      0.114880
    182 H89        -5.4080    0.1580   -2.3710 hn        1 MOL      0.221194
    183 Ca1         1.8470   -0.6820    1.3920 Ca        1 MOL      1.774646
    184 O25         0.4200   -0.1550    3.5500 oh        1 MOL     -0.900295
    185 H90         0.7530    0.6840    3.8610 ho        1 MOL      0.407686
    186 H91         0.4510   -0.7230    4.3250 ho        1 MOL      0.407686
    187 O26         0.5900   -2.8740    2.3510 oh        1 MOL     -0.900295
    188 H92         0.1760   -3.2940    3.0900 ho        1 MOL      0.407686
    189 H93         1.2680   -3.4910    2.0610 ho        1 MOL      0.407686
@<TRIPOS>BOND
     1    1    2 1   
     2    1    4 1   
     3    1    5 1   
     4    1    6 1   
     5    2    3 2   
     6    2    7 1   
     7    7    8 1   
     8    7   15 1   
     9    8    9 1   
    10    8   11 1   
    11    8   16 1   
    12    9   10 2   
    13    9   19 1   
    14   11   12 1   
    15   11   17 1   
    16   11   18 1   
    17   12   13 1   
    18   12   14 1   
    19   19   20 1   
    20   19   28 1   
    21   20   21 1   
    22   20   23 1   
    23   20   29 1   
    24   21   22 2   
    25   21   41 1   
    26   23   24 1   
    27   23   30 1   
    28   23   31 1   
    29   24   25 1   
    30   24   32 1   
    31   24   33 1   
    32   25   26 1   
    33   25   34 1   
    34   25   35 1   
    35   26   27 1   
    36   26   36 1   
    37   26   37 1   
    38   27   38 1   
    39   27   39 1   
    40   27   40 1   
    41   41   42 1   
    42   41   49 1   
    43   42   43 1   
    44   42   45 1   
    45   42   50 1   
    46   43   44 2   
    47   43   53 1   
    48   45   46 1   
    49   45   51 1   
    50   45   52 1   
    51   46   47 1   
    52   46   48 1   
    53   53   54 1   
    54   53   57 1   
    55   54   55 1   
    56   54   58 1   
    57   54   59 1   
    58   55   56 2   
    59   55   60 1   
    60   60   61 1   
    61   60   68 1   
    62   61   62 1   
    63   61   64 1   
    64   61   69 1   
    65   62   63 2   
    66   62   72 1   
    67   64   65 1   
    68   64   70 1   
    69   64   71 1   
    70   65   66 1   
    71   65   67 1   
    72   72   73 1   
    73   72   76 1   
    74   73   74 1   
    75   73   77 1   
    76   73   78 1   
    77   74   75 2   
    78   74   79 1   
    79   79   80 1   
    80   79   86 1   
    81   80   81 1   
    82   80   83 1   
    83   80   87 1   
    84   81   82 2   
    85   81   93 1   
    86   83   84 1   
    87   83   85 1   
    88   83   88 1   
    89   84   90 1   
    90   84   91 1   
    91   84   92 1   
    92   85   89 1   
    93   93   94 1   
    94   93  101 1   
    95   94   95 1   
    96   94   97 1   
    97   94  102 1   
    98   95   96 2   
    99   95  112 1   
   100   97   98 1   
   101   97   99 1   
   102   97  103 1   
   103   98  100 1   
   104   98  104 1   
   105   98  105 1   
   106   99  106 1   
   107   99  107 1   
   108   99  108 1   
   109  100  109 1   
   110  100  110 1   
   111  100  111 1   
   112  112  113 1   
   113  112  119 1   
   114  113  114 1   
   115  113  116 1   
   116  113  120 1   
   117  114  115 2   
   118  114  126 1   
   119  116  117 1   
   120  116  118 1   
   121  116  121 1   
   122  117  123 1   
   123  117  124 1   
   124  117  125 1   
   125  118  122 1   
   126  126  127 1   
   127  126  133 1   
   128  127  128 1   
   129  127  130 1   
   130  127  134 1   
   131  128  129 2   
   132  128  140 1   
   133  130  131 1   
   134  130  132 1   
   135  130  135 1   
   136  131  137 1   
   137  131  138 1   
   138  131  139 1   
   139  132  136 1   
   140  140  141 1   
   141  140  149 1   
   142  141  142 1   
   143  141  144 1   
   144  141  150 1   
   145  142  143 2   
   146  142  162 1   
   147  144  145 1   
   148  144  151 1   
   149  144  152 1   
   150  145  146 1   
   151  145  153 1   
   152  145  154 1   
   153  146  147 1   
   154  146  155 1   
   155  146  156 1   
   156  147  148 1   
   157  147  157 1   
   158  147  158 1   
   159  148  159 1   
   160  148  160 1   
   161  148  161 1   
   162  162  163 1   
   163  162  171 1   
   164  163  164 1   
   165  163  166 1   
   166  163  172 1   
   167  164  165 2   
   168  164  177 1   
   169  166  167 1   
   170  166  173 1   
   171  166  174 1   
   172  167  168 1   
   173  167  175 1   
   174  167  176 1   
   175  168  169 1   
   176  168  170 1   
   177  177  178 1   
   178  177  182 1   
   179  178  179 1   
   180  178  180 1   
   181  178  181 1   
   182  184  185 1   
   183  184  186 1   
   184  187  188 1   
   185  187  189 1   
@<TRIPOS>SUBSTRUCTURE
     1 MOL         1 TEMP              0 ****  ****    0 ROOT
