@<TRIPOS>MOLECULE
MOL
  189   185     1     0     0
SMALL
resp


@<TRIPOS>ATOM
      1 C1         -0.5140    1.5880    6.3700 c3        1 MOL     -0.404914
      2 C2         -0.6260    1.1070    4.9160 c         1 MOL      0.702717
      3 O1          0.3740    1.0700    4.2120 o         1 MOL     -0.592762
      4 H1         -1.5130    1.7460    6.7770 hc        1 MOL      0.104453
      5 H2          0.0050    0.8350    6.9630 hc        1 MOL      0.104453
      6 H3          0.0430    2.5230    6.4010 hc        1 MOL      0.104453
      7 N1         -1.8090    0.7140    4.4520 n         1 MOL     -0.539907
      8 C3         -2.3460    0.8640    3.1040 c3        1 MOL      0.138601
      9 C4         -2.5060    2.3240    2.7390 c         1 MOL      0.583865
     10 O2         -3.3670    2.9960    3.2800 o         1 MOL     -0.556889
     11 C5         -3.5730    0.0010    2.8520 c3        1 MOL     -0.328577
     12 C6         -4.3070    0.2880    1.5090 c         1 MOL      0.866044
     13 O3         -5.5490    0.2260    1.4990 o         1 MOL     -0.727233
     14 O4         -3.6920    0.4430    0.4470 o         1 MOL     -0.727233
     15 H4         -2.5060    0.6500    5.1790 hn        1 MOL      0.303899
     16 H5         -1.6180    0.4490    2.4030 h1        1 MOL     -0.039135
     17 H6         -4.2420   -0.0890    3.7140 hc        1 MOL      0.074983
     18 H7         -3.1750   -1.0060    2.7070 hc        1 MOL      0.074983
     19 N2         -1.5690    2.8520    1.9160 n         1 MOL     -0.324749
     20 C7         -1.4320    4.3150    1.7420 c3        1 MOL     -0.154555
     21 C8         -2.4110    4.9580    0.7260 c         1 MOL      0.589544
     22 O5         -2.7360    6.1250    0.9000 o         1 MOL     -0.599040
     23 C9          0.0980    4.7200    1.4970 c3        1 MOL      0.087683
     24 C10         0.4950    6.1920    1.6080 c3        1 MOL     -0.171755
     25 C11         1.9590    6.6350    1.1620 c3        1 MOL     -0.021802
     26 C12         2.2230    8.1500    1.3840 c3        1 MOL      0.115527
     27 N3          3.6820    8.4520    0.9710 n4        1 MOL     -0.472299
     28 H8         -1.1120    2.1950    1.2910 hn        1 MOL      0.238439
     29 H9         -1.6640    4.8350    2.6730 h1        1 MOL      0.114384
     30 H10         0.3640    4.4030    0.4860 hc        1 MOL      0.018072
     31 H11         0.7290    4.0250    2.0430 hc        1 MOL      0.018072
     32 H12         0.3300    6.4740    2.6480 hc        1 MOL      0.068399
     33 H13        -0.1690    6.7720    0.9610 hc        1 MOL      0.068399
     34 H14         1.9480    6.4440    0.0880 hc        1 MOL      0.044715
     35 H15         2.7770    6.1300    1.6770 hc        1 MOL      0.044715
     36 H16         2.1450    8.3590    2.4430 hx        1 MOL      0.077694
     37 H17         1.5050    8.8090    0.8980 hx        1 MOL      0.077694
     38 H18         4.3980    7.8890    1.4080 hn        1 MOL      0.341442
     39 H19         3.7370    8.5110   -0.0340 hn        1 MOL      0.341442
     40 H20         3.9630    9.4030    1.1640 hn        1 MOL      0.341442
     41 N4         -2.9480    4.2720   -0.3270 n         1 MOL     -0.383191
     42 C13        -3.6260    4.8480   -1.4550 c3        1 MOL      0.004662
     43 C14        -5.0460    4.3670   -1.5380 c         1 MOL      0.505772
     44 O6         -5.7750    5.0010   -2.3000 o         1 MOL     -0.549434
     45 C15        -2.8450    4.5860   -2.7390 c3        1 MOL     -0.150915
     46 C16        -2.3130    3.1420   -2.9080 c         1 MOL      0.780025
     47 O7         -2.4260    2.2600   -2.0400 o         1 MOL     -0.731078
     48 O8         -1.5910    2.8790   -3.9260 o         1 MOL     -0.731078
     49 H21        -2.6190    3.3220   -0.4480 hn        1 MOL      0.222838
     50 H22        -3.6850    5.9320   -1.3320 h1        1 MOL      0.087591
     51 H23        -1.9840    5.2490   -2.8230 hc        1 MOL      0.047190
     52 H24        -3.4190    4.9210   -3.5980 hc        1 MOL      0.047190
     53 N5         -5.3940    3.3360   -0.7340 n         1 MOL     -0.125593
     54 C17        -6.7180    2.8750   -0.5260 c3        1 MOL     -0.218982
     55 C18        -7.1610    1.7360   -1.5290 c         1 MOL      0.694856
     56 O9         -7.7310    2.0330   -2.5230 o         1 MOL     -0.535707
     57 H25        -4.6920    2.9550   -0.1130 hn        1 MOL      0.189265
     58 H26        -7.4400    3.6730   -0.7150 h1        1 MOL      0.072341
     59 H27        -6.9320    2.4670    0.4630 h1        1 MOL      0.072341
     60 N6         -6.8250    0.4830   -1.1690 n         1 MOL     -0.525919
     61 C19        -7.2350   -0.7990   -1.7870 c3        1 MOL     -0.026055
     62 C20        -7.0900   -2.0990   -0.8700 c         1 MOL      0.459373
     63 O10        -7.3920   -3.2310   -1.2520 o         1 MOL     -0.524628
     64 C21        -6.2950   -1.0100   -3.0160 c3        1 MOL     -0.161624
     65 C22        -4.8280   -0.9590   -2.6350 c         1 MOL      0.662397
     66 O11        -4.1610   -0.0230   -3.1700 o         1 MOL     -0.652864
     67 O12        -4.1720   -1.7470   -1.8660 o         1 MOL     -0.652864
     68 H28        -6.2550    0.4310   -0.3340 hn        1 MOL      0.259072
     69 H29        -8.2910   -0.7490   -2.0430 h1        1 MOL      0.105817
     70 H30        -6.4900   -0.3010   -3.8200 hc        1 MOL      0.072457
     71 H31        -6.4280   -2.0360   -3.3600 hc        1 MOL      0.072457
     72 N7         -6.6210   -1.8950    0.3810 n         1 MOL     -0.257004
     73 C23        -6.5810   -2.9410    1.3910 c3        1 MOL     -0.038551
     74 C24        -5.4640   -3.9500    1.2530 c         1 MOL      0.502502
     75 O13        -5.5300   -5.0210    1.7580 o         1 MOL     -0.536089
     76 H32        -6.5520   -1.0000    0.8390 hn        1 MOL      0.268754
     77 H33        -7.5520   -3.4100    1.5390 h1        1 MOL      0.061435
     78 H34        -6.5300   -2.4370    2.3530 h1        1 MOL      0.061435
     79 N8         -4.3970   -3.6090    0.4470 n         1 MOL     -0.161461
     80 C25        -3.2700   -4.5070    0.1940 c3        1 MOL     -0.410882
     81 C26        -1.9760   -3.6950    0.2850 c         1 MOL      0.814121
     82 O14        -1.9890   -2.5290   -0.0900 o         1 MOL     -0.640983
     83 C27        -3.4580   -5.2900   -1.1010 c3        1 MOL      0.488237
     84 C28        -4.7700   -6.0420   -1.2090 c3        1 MOL     -0.528931
     85 O15        -3.3310   -4.3650   -2.1770 oh        1 MOL     -0.632823
     86 H35        -4.3780   -2.7540   -0.1030 hn        1 MOL      0.079205
     87 H36        -3.3260   -5.2090    1.0220 h1        1 MOL      0.118342
     88 H37        -2.5600   -5.8930   -1.2210 h1        1 MOL      0.004496
     89 H38        -3.8320   -3.5820   -1.9300 ho        1 MOL      0.414372
     90 H39        -4.6570   -6.8220   -1.9660 hc        1 MOL      0.136176
     91 H40        -4.9090   -6.5950   -0.2860 hc        1 MOL      0.136176
     92 H41        -5.6900   -5.4910   -1.4080 hc        1 MOL      0.136176
     93 N9         -0.8750   -4.3150    0.7490 n         1 MOL     -0.624465
     94 C29         0.3480   -3.6590    1.0400 c3        1 MOL      0.223027
     95 C30         1.4300   -4.0710    0.0540 c         1 MOL      0.599208
     96 O16         1.6510   -5.2420   -0.2710 o         1 MOL     -0.603743
     97 C31         0.5750   -3.7770    2.5770 c3        1 MOL     -0.173648
     98 C32        -0.1910   -2.6830    3.3140 c3        1 MOL      0.185206
     99 C33         2.1030   -3.7350    2.7950 c3        1 MOL      0.043097
    100 C34        -0.1840   -2.6720    4.8570 c3        1 MOL     -0.506444
    101 H42        -0.9640   -5.2760    1.0320 hn        1 MOL      0.307279
    102 H43         0.2600   -2.6040    0.7810 h1        1 MOL     -0.016138
    103 H44         0.2770   -4.7880    2.8240 hc        1 MOL      0.062132
    104 H45        -1.2420   -2.6490    3.0430 hc        1 MOL      0.043211
    105 H46         0.2490   -1.7960    2.8660 hc        1 MOL      0.043211
    106 H47         2.6440   -4.5650    2.3450 hc        1 MOL     -0.023032
    107 H48         2.5700   -2.8500    2.3650 hc        1 MOL     -0.023032
    108 H49         2.3520   -3.7750    3.8530 hc        1 MOL     -0.023032
    109 H50        -0.9280   -3.3410    5.2950 hc        1 MOL      0.127068
    110 H51         0.8010   -2.8330    5.3000 hc        1 MOL      0.127068
    111 H52        -0.2620   -1.6260    5.1350 hc        1 MOL      0.127068
    112 N10         2.1300   -3.1260   -0.5360 n         1 MOL     -0.151051
    113 C35         3.2250   -3.2000   -1.5340 c3        1 MOL      0.009602
    114 C36         4.5330   -3.0130   -0.7360 c         1 MOL      0.301853
    115 O17         4.5160   -2.7600    0.4320 o         1 MOL     -0.267951
    116 C37         3.1110   -2.1070   -2.6400 c3        1 MOL      0.358768
    117 C38         1.9250   -2.4440   -3.6090 c3        1 MOL     -0.442124
    118 O18         2.9220   -0.7750   -2.1290 oh        1 MOL     -0.669452
    119 H53         2.0860   -2.2470   -0.0330 hn        1 MOL     -0.148250
    120 H54         3.4170   -4.1380   -2.0610 h1        1 MOL      0.067001
    121 H55         4.0080   -2.2570   -3.2220 h1        1 MOL      0.004035
    122 H56         2.0070   -0.6980   -1.8560 ho        1 MOL      0.477164
    123 H57         1.7260   -1.5760   -4.2490 hc        1 MOL      0.115950
    124 H58         1.9490   -3.3670   -4.1860 hc        1 MOL      0.115950
    125 H59         0.9920   -2.5360   -3.0690 hc        1 MOL      0.115950
    126 N11         5.6690   -3.1230   -1.3980 n         1 MOL     -0.259833
    127 C39         6.9890   -3.0010   -0.7300 c3        1 MOL     -0.101774
    128 C40         7.1750   -1.6230   -0.1940 c         1 MOL      0.402270
    129 O19         7.6650   -1.4470    0.9100 o         1 MOL     -0.500669
    130 C41         8.0470   -3.0790   -1.9200 c3        1 MOL      0.250011
    131 C42         8.3490   -4.5740   -2.1720 c3        1 MOL     -0.418847
    132 O20         7.5790   -2.4290   -3.1290 oh        1 MOL     -0.647418
    133 H60         5.6280   -3.5270   -2.3320 hn        1 MOL      0.270527
    134 H61         7.2310   -3.6950    0.0710 h1        1 MOL      0.147978
    135 H62         8.9180   -2.4650   -1.6720 h1        1 MOL      0.049144
    136 H63         8.3970   -2.2930   -3.6240 ho        1 MOL      0.416460
    137 H64         8.3930   -5.1050   -1.2310 hc        1 MOL      0.124773
    138 H65         7.6550   -5.1440   -2.8000 hc        1 MOL      0.124773
    139 H66         9.3240   -4.5940   -2.6560 hc        1 MOL      0.124773
    140 N12         6.6520   -0.6150   -0.8940 n         1 MOL     -0.343219
    141 C43         6.8390    0.7570   -0.4340 c3        1 MOL      0.004151
    142 C44         5.8880    1.0180    0.7570 c         1 MOL      0.455319
    143 O21         6.2460    1.7890    1.5890 o         1 MOL     -0.536352
    144 C45         6.4760    1.6640   -1.6150 c3        1 MOL     -0.125716
    145 C46         6.7640    3.1830   -1.4540 c3        1 MOL      0.062098
    146 C47         6.7770    3.9370   -2.8960 c3        1 MOL     -0.140844
    147 C48         7.8890    3.6740   -3.9580 c3        1 MOL     -0.064499
    148 N13         9.2020    4.0730   -3.4600 n4        1 MOL     -0.293591
    149 H67         6.2850   -0.7950   -1.8100 hn        1 MOL      0.261828
    150 H68         7.8400    1.0080   -0.1000 h1        1 MOL      0.095013
    151 H69         5.3900    1.6270   -1.6250 hc        1 MOL      0.048057
    152 H70         6.8930    1.2500   -2.5320 hc        1 MOL      0.048057
    153 H71         7.7010    3.2750   -0.9070 hc        1 MOL      0.006420
    154 H72         6.0000    3.5860   -0.7850 hc        1 MOL      0.006420
    155 H73         6.7300    4.9940   -2.6150 hc        1 MOL      0.072373
    156 H74         5.8380    3.8380   -3.4360 hc        1 MOL      0.072373
    157 H75         7.6640    4.1190   -4.9340 hx        1 MOL      0.129989
    158 H76         7.8020    2.6300   -4.2400 hx        1 MOL      0.129989
    159 H77         9.5750    3.3610   -2.8440 hn        1 MOL      0.276011
    160 H78         9.9310    4.1260   -4.1500 hn        1 MOL      0.276011
    161 H79         9.2510    4.9470   -2.9560 hn        1 MOL      0.276011
    162 N14         4.8010    0.2420    0.9110 n         1 MOL     -0.197353
    163 C49         3.8980    0.2340    2.1640 c3        1 MOL     -0.127709
    164 C50         4.3860   -0.7390    3.3220 c         1 MOL      0.424961
    165 O22         4.3300   -0.3880    4.5190 o         1 MOL     -0.564445
    166 C51         2.4790   -0.1100    1.7090 c3        1 MOL      0.226747
    167 C52         1.8280    0.8690    0.7740 c3        1 MOL     -0.150413
    168 C53         0.5710    0.3810    0.0220 c         1 MOL      0.619202
    169 O23        -0.3970    1.1220   -0.0070 o         1 MOL     -0.600938
    170 O24         0.5640   -0.7650   -0.4650 o         1 MOL     -0.600938
    171 H80         4.6130   -0.4140    0.1670 hn        1 MOL      0.200981
    172 H81         3.8090    1.2390    2.5670 h1        1 MOL      0.106273
    173 H82         1.8580   -0.2480    2.5910 hc        1 MOL      0.041515
    174 H83         2.4550   -1.0530    1.1600 hc        1 MOL      0.041515
    175 H84         2.5640    1.0990    0.0030 hc        1 MOL     -0.005923
    176 H85         1.5930    1.8050    1.2910 hc        1 MOL     -0.005923
    177 N15         4.9810   -1.8340    3.0210 n         1 MOL      0.006755
    178 C54         5.6780   -2.7550    3.9800 c3        1 MOL     -0.329938
    179 H86         6.5970   -3.1240    3.5250 h1        1 MOL      0.119949
    180 H87         5.9200   -2.2130    4.8940 h1        1 MOL      0.119949
    181 H88         5.0260   -3.5960    4.2160 h1        1 MOL      0.119949
    182 H89         4.9660   -2.1430    2.0570 hn        1 MOL      0.089981
    183 Ca1        -2.0290   -0.3290   -1.5250 Ca        1 MOL      1.757295
    184 O25        -0.1780    0.5060   -3.2880 oh        1 MOL     -0.939025
    185 H90         0.5120    0.3990   -3.9420 ho        1 MOL      0.430331
    186 H91        -0.6900    1.2590   -3.5870 ho        1 MOL      0.430331
    187 O26        -1.5770   -2.2450   -3.2030 oh        1 MOL     -0.939025
    188 H92        -0.9840   -2.3130   -3.9520 ho        1 MOL      0.430331
    189 H93        -2.2950   -2.8420   -3.4020 ho        1 MOL      0.430331
@<TRIPOS>BOND
     1    1    2 1   
     2    1    4 1   
     3    1    5 1   
     4    1    6 1   
     5    2    3 2   
     6    2    7 1   
     7    7    8 1   
     8    7   15 1   
     9    8    9 1   
    10    8   11 1   
    11    8   16 1   
    12    9   10 2   
    13    9   19 1   
    14   11   12 1   
    15   11   17 1   
    16   11   18 1   
    17   12   13 1   
    18   12   14 1   
    19   19   20 1   
    20   19   28 1   
    21   20   21 1   
    22   20   23 1   
    23   20   29 1   
    24   21   22 2   
    25   21   41 1   
    26   23   24 1   
    27   23   30 1   
    28   23   31 1   
    29   24   25 1   
    30   24   32 1   
    31   24   33 1   
    32   25   26 1   
    33   25   34 1   
    34   25   35 1   
    35   26   27 1   
    36   26   36 1   
    37   26   37 1   
    38   27   38 1   
    39   27   39 1   
    40   27   40 1   
    41   41   42 1   
    42   41   49 1   
    43   42   43 1   
    44   42   45 1   
    45   42   50 1   
    46   43   44 2   
    47   43   53 1   
    48   45   46 1   
    49   45   51 1   
    50   45   52 1   
    51   46   47 1   
    52   46   48 1   
    53   53   54 1   
    54   53   57 1   
    55   54   55 1   
    56   54   58 1   
    57   54   59 1   
    58   55   56 2   
    59   55   60 1   
    60   60   61 1   
    61   60   68 1   
    62   61   62 1   
    63   61   64 1   
    64   61   69 1   
    65   62   63 2   
    66   62   72 1   
    67   64   65 1   
    68   64   70 1   
    69   64   71 1   
    70   65   66 1   
    71   65   67 1   
    72   72   73 1   
    73   72   76 1   
    74   73   74 1   
    75   73   77 1   
    76   73   78 1   
    77   74   75 2   
    78   74   79 1   
    79   79   80 1   
    80   79   86 1   
    81   80   81 1   
    82   80   83 1   
    83   80   87 1   
    84   81   82 2   
    85   81   93 1   
    86   83   84 1   
    87   83   85 1   
    88   83   88 1   
    89   84   90 1   
    90   84   91 1   
    91   84   92 1   
    92   85   89 1   
    93   93   94 1   
    94   93  101 1   
    95   94   95 1   
    96   94   97 1   
    97   94  102 1   
    98   95   96 2   
    99   95  112 1   
   100   97   98 1   
   101   97   99 1   
   102   97  103 1   
   103   98  100 1   
   104   98  104 1   
   105   98  105 1   
   106   99  106 1   
   107   99  107 1   
   108   99  108 1   
   109  100  109 1   
   110  100  110 1   
   111  100  111 1   
   112  112  113 1   
   113  112  119 1   
   114  113  114 1   
   115  113  116 1   
   116  113  120 1   
   117  114  115 2   
   118  114  126 1   
   119  116  117 1   
   120  116  118 1   
   121  116  121 1   
   122  117  123 1   
   123  117  124 1   
   124  117  125 1   
   125  118  122 1   
   126  126  127 1   
   127  126  133 1   
   128  127  128 1   
   129  127  130 1   
   130  127  134 1   
   131  128  129 2   
   132  128  140 1   
   133  130  131 1   
   134  130  132 1   
   135  130  135 1   
   136  131  137 1   
   137  131  138 1   
   138  131  139 1   
   139  132  136 1   
   140  140  141 1   
   141  140  149 1   
   142  141  142 1   
   143  141  144 1   
   144  141  150 1   
   145  142  143 2   
   146  142  162 1   
   147  144  145 1   
   148  144  151 1   
   149  144  152 1   
   150  145  146 1   
   151  145  153 1   
   152  145  154 1   
   153  146  147 1   
   154  146  155 1   
   155  146  156 1   
   156  147  148 1   
   157  147  157 1   
   158  147  158 1   
   159  148  159 1   
   160  148  160 1   
   161  148  161 1   
   162  162  163 1   
   163  162  171 1   
   164  163  164 1   
   165  163  166 1   
   166  163  172 1   
   167  164  165 2   
   168  164  177 1   
   169  166  167 1   
   170  166  173 1   
   171  166  174 1   
   172  167  168 1   
   173  167  175 1   
   174  167  176 1   
   175  168  169 1   
   176  168  170 1   
   177  177  178 1   
   178  177  182 1   
   179  178  179 1   
   180  178  180 1   
   181  178  181 1   
   182  184  185 1   
   183  184  186 1   
   184  187  188 1   
   185  187  189 1   
@<TRIPOS>SUBSTRUCTURE
     1 MOL         1 TEMP              0 ****  ****    0 ROOT
