@<TRIPOS>MOLECULE
MOL
  186   183     1     0     0
SMALL
resp


@<TRIPOS>ATOM
      1 C1          0.3430   -0.9610    6.4390 c3        1 MOL     -0.287961
      2 C2          0.6240   -1.1930    4.9740 c         1 MOL      0.760564
      3 O1         -0.2380   -1.8200    4.3180 o         1 MOL     -0.554251
      4 H1         -0.7330   -1.0060    6.6140 hc        1 MOL      0.063483
      5 H2          0.8380   -1.7310    7.0320 hc        1 MOL      0.063483
      6 H3          0.7170    0.0200    6.7310 hc        1 MOL      0.063483
      7 N1          1.7020   -0.7230    4.3940 n         1 MOL     -0.705027
      8 C3          2.1810   -1.0780    3.0560 c3        1 MOL      0.492074
      9 C4          2.3750   -2.6130    2.8960 c         1 MOL      0.230346
     10 O2          2.4040   -3.4400    3.8730 o         1 MOL     -0.546955
     11 C5          3.5160   -0.3020    2.8680 c3        1 MOL     -0.259748
     12 C6          4.1580   -0.5290    1.5080 c         1 MOL      0.791863
     13 O3          5.3760   -0.2800    1.3580 o         1 MOL     -0.623740
     14 O4          3.4550   -0.9940    0.5630 o         1 MOL     -0.623740
     15 H4          2.3770   -0.2810    5.0030 hn        1 MOL      0.310630
     16 H5          1.3930   -0.7470    2.3820 h1        1 MOL     -0.047957
     17 H6          4.2480   -0.6740    3.5750 hc        1 MOL      0.026420
     18 H7          3.3690    0.7750    2.9980 hc        1 MOL      0.026420
     19 N2          2.1880   -3.1770    1.6910 n         1 MOL     -0.116280
     20 C7          2.1810   -4.6880    1.3960 c3        1 MOL     -0.053262
     21 C8          3.2430   -5.1550    0.3500 c         1 MOL      0.374529
     22 O5          3.6930   -6.2660    0.1540 o         1 MOL     -0.557984
     23 C9          0.7640   -5.0980    0.8920 c3        1 MOL      0.376523
     24 C10        -0.2480   -5.2130    2.0310 c3        1 MOL     -0.292263
     25 C11         0.7290   -6.2620   -0.0550 c3        1 MOL     -0.302310
     26 C12        -0.2130   -6.5030    2.7680 c3        1 MOL      0.023146
     27 H8          1.9770   -2.4420    1.0310 hn        1 MOL      0.114029
     28 H9          2.4480   -5.2850    2.2680 h1        1 MOL      0.105170
     29 H10         0.4120   -4.1840    0.4120 hc        1 MOL     -0.043568
     30 H11        -1.2550   -5.2720    1.6050 hc        1 MOL      0.115197
     31 H12        -0.1090   -4.5020    2.8480 hc        1 MOL      0.115197
     32 H13        -0.3190   -6.4540   -0.3010 hc        1 MOL      0.066154
     33 H14         1.3120   -6.0780   -0.9510 hc        1 MOL      0.066154
     34 H15         1.1920   -7.1220    0.4460 hc        1 MOL      0.066154
     35 H16        -0.9940   -6.5480    3.5320 hc        1 MOL     -0.022392
     36 H17        -0.3670   -7.3560    2.1100 hc        1 MOL     -0.022392
     37 H18         0.7580   -6.6610    3.2350 hc        1 MOL     -0.022392
     38 N3          3.9300   -4.2390   -0.3190 n         1 MOL     -0.226273
     39 C13         5.0290   -4.4750   -1.3220 c3        1 MOL      0.098701
     40 C14         6.4410   -3.8470   -1.0230 c         1 MOL      0.360366
     41 O6          7.4310   -4.3040   -1.5730 o         1 MOL     -0.538978
     42 C15         4.6050   -4.2370   -2.7730 c3        1 MOL     -0.263357
     43 C16         3.7750   -3.0430   -3.1020 c         1 MOL      0.804318
     44 O7          3.8910   -1.9770   -2.4150 o         1 MOL     -0.727993
     45 O8          3.0300   -2.9970   -4.1150 o         1 MOL     -0.727993
     46 H19         3.6440   -3.2800   -0.1380 hn        1 MOL      0.164135
     47 H20         5.2540   -5.5460   -1.3040 h1        1 MOL      0.087661
     48 H21         4.1040   -5.1560   -3.0530 hc        1 MOL      0.065544
     49 H22         5.5180   -4.1280   -3.3700 hc        1 MOL      0.065544
     50 N4          6.5370   -2.8640   -0.1550 n         1 MOL     -0.080817
     51 C17         7.7090   -2.0990    0.2560 c3        1 MOL     -0.045332
     52 C18         8.1160   -0.9600   -0.6260 c         1 MOL      0.561627
     53 O9          9.1820   -0.9210   -1.1970 o         1 MOL     -0.585768
     54 H23         5.6340   -2.5530    0.2020 hn        1 MOL      0.046128
     55 H24         8.5610   -2.7630    0.3470 h1        1 MOL      0.030187
     56 H25         7.4800   -1.6640    1.2240 h1        1 MOL      0.030187
     57 N5          7.2350    0.0510   -0.8500 n         1 MOL     -0.200002
     58 C19         7.5700    1.3260   -1.4230 c3        1 MOL     -0.019770
     59 C20         7.4710    2.4920   -0.3560 c         1 MOL      0.355825
     60 O10         7.8800    3.6180   -0.7240 o         1 MOL     -0.544761
     61 C21         6.7030    1.6550   -2.6560 c3        1 MOL     -0.066302
     62 C22         5.1740    1.4300   -2.3800 c         1 MOL      0.665289
     63 O11         4.6810    1.3140   -1.2330 o         1 MOL     -0.754482
     64 O12         4.3570    1.2400   -3.3420 o         1 MOL     -0.754482
     65 H26         6.3040   -0.0260   -0.4670 hn        1 MOL      0.123098
     66 H27         8.5890    1.2580   -1.8030 h1        1 MOL      0.077025
     67 H28         6.8950    0.9530   -3.4750 hc        1 MOL      0.047667
     68 H29         6.9930    2.6050   -3.1150 hc        1 MOL      0.047667
     69 N6          6.8330    2.2690    0.7690 n         1 MOL     -0.175571
     70 C23         6.6380    3.2680    1.8370 c3        1 MOL     -0.060386
     71 C24         5.3830    4.0800    1.7210 c         1 MOL      0.523785
     72 O13         5.3560    5.1760    2.3110 o         1 MOL     -0.586055
     73 H30         6.4590    1.3550    0.9660 hn        1 MOL      0.129681
     74 H31         7.4380    4.0050    1.8940 h1        1 MOL      0.068534
     75 H32         6.5730    2.7970    2.8210 h1        1 MOL      0.068534
     76 N7          4.3970    3.6400    0.9140 n         1 MOL     -0.393443
     77 C25         3.0370    4.2430    0.9000 c3        1 MOL      0.151401
     78 C26         1.9440    3.1870    1.0260 c         1 MOL      0.501124
     79 O14         2.0960    1.9950    0.6770 o         1 MOL     -0.692111
     80 C27         2.9760    5.2110   -0.3580 c3        1 MOL     -0.169075
     81 C28         3.5980    6.6560   -0.0950 c3        1 MOL     -0.267067
     82 C29         3.2850    7.5510   -1.2830 c         1 MOL      0.690621
     83 N8          3.5390    7.1630   -2.4790 n         1 MOL     -0.774539
     84 O15         2.8770    8.7000   -1.1220 o         1 MOL     -0.606499
     85 H33         4.5520    2.8390    0.3120 hn        1 MOL      0.335879
     86 H34         2.9900    4.8650    1.8060 h1        1 MOL      0.023372
     87 H35         1.9250    5.3170   -0.6140 hc        1 MOL      0.057564
     88 H36         3.5750    4.7980   -1.1590 hc        1 MOL      0.057564
     89 H37         4.6890    6.6550    0.0120 hc        1 MOL      0.116193
     90 H38         3.2220    7.0990    0.8330 hc        1 MOL      0.116193
     91 H39         3.8640    6.2230   -2.6480 hn        1 MOL      0.354799
     92 H40         3.2830    7.7190   -3.2800 hn        1 MOL      0.354799
     93 N9          0.7460    3.6520    1.4010 n         1 MOL     -0.221439
     94 C30        -0.4340    2.8320    1.6700 c3        1 MOL      0.032795
     95 C31        -1.4140    3.1250    0.6090 c         1 MOL      0.261050
     96 O16        -1.9910    4.2630    0.5460 o         1 MOL     -0.553900
     97 C32        -1.0080    3.0660    3.0490 c3        1 MOL      0.073155
     98 C33        -2.2610    2.2440    3.3220 c3        1 MOL     -0.117033
     99 C34        -0.0220    2.6190    4.0920 c3        1 MOL     -0.117033
    100 H41         0.7380    4.6350    1.6340 hn        1 MOL      0.203632
    101 H42        -0.1440    1.7970    1.4490 h1        1 MOL      0.186774
    102 H43        -1.2510    4.1110    3.2890 hc        1 MOL      0.020127
    103 H44        -2.6480    2.4260    4.3160 hc        1 MOL      0.016314
    104 H45        -3.0400    2.4060    2.5700 hc        1 MOL      0.016314
    105 H46        -2.0420    1.1740    3.2320 hc        1 MOL      0.016314
    106 H47        -0.3480    2.7940    5.1200 hc        1 MOL      0.016314
    107 H48         0.1820    1.5610    3.9410 hc        1 MOL      0.016314
    108 H49         0.9170    3.1700    3.9870 hc        1 MOL      0.016314
    109 N10        -1.8600    2.2090   -0.3680 n         1 MOL     -0.072742
    110 C35        -3.0140    2.3790   -1.2880 c3        1 MOL      0.031946
    111 C36        -4.3720    2.0250   -0.5420 c         1 MOL      0.404959
    112 O17        -4.3240    1.3780    0.4980 o         1 MOL     -0.290582
    113 C37        -2.7690    1.5910   -2.6340 c3        1 MOL     -0.462667
    114 C38        -3.8710    1.6340   -3.6760 c         1 MOL      0.781832
    115 N11        -4.1600    2.7500   -4.2650 n         1 MOL     -0.810650
    116 O18        -4.5770    0.6860   -3.8540 o         1 MOL     -0.544735
    117 H50        -1.4410    1.2920   -0.3050 hn        1 MOL      0.192558
    118 H51        -3.1060    3.4260   -1.6080 h1        1 MOL      0.034959
    119 H52        -2.4720    0.5730   -2.4160 hc        1 MOL      0.164256
    120 H53        -1.8960    2.0020   -3.1350 hc        1 MOL      0.164256
    121 H54        -3.5690    3.5390   -4.0200 hn        1 MOL      0.358592
    122 H55        -5.0200    2.8870   -4.7750 hn        1 MOL      0.358592
    123 N12        -5.5390    2.1810   -1.1540 n         1 MOL     -0.485526
    124 C39        -6.7860    1.8260   -0.5840 c3        1 MOL      0.171493
    125 C40        -6.9540    0.2760   -0.3680 c         1 MOL      0.602479
    126 O19        -7.3720   -0.2200    0.6860 o         1 MOL     -0.504496
    127 C41        -7.9260    2.4940   -1.3450 c3        1 MOL     -0.074983
    128 C42        -9.2210    2.1840   -0.7390 ca        1 MOL      0.082924
    129 C43        -9.6320    2.8670    0.4660 ca        1 MOL     -0.309178
    130 C44       -10.0370    1.1790   -1.2510 ca        1 MOL     -0.309178
    131 C45       -10.7870    2.4070    1.1200 ca        1 MOL     -0.064743
    132 C46       -11.2060    0.7350   -0.6680 ca        1 MOL     -0.064743
    133 C47       -11.6300    1.4470    0.4940 ca        1 MOL      0.154184
    134 O20       -12.6590    1.0530    1.2060 oh        1 MOL     -0.489086
    135 H56        -5.5500    2.6080   -2.0640 hn        1 MOL      0.238475
    136 H57        -6.7770    2.1630    0.4490 h1        1 MOL      0.041738
    137 H58        -8.0150    2.1680   -2.3910 hc        1 MOL      0.043795
    138 H59        -7.8330    3.5810   -1.3860 hc        1 MOL      0.043795
    139 H60        -9.0240    3.6910    0.8130 ha        1 MOL      0.162517
    140 H61        -9.5980    0.5670   -2.0250 ha        1 MOL      0.162517
    141 H62       -11.0560    2.8390    2.0730 ha        1 MOL      0.107432
    142 H63       -11.7180   -0.0940   -1.1280 ha        1 MOL      0.107432
    143 H64       -13.1060    0.2580    0.9150 ho        1 MOL      0.391965
    144 N13        -6.4720   -0.5430   -1.3630 n         1 MOL     -0.522424
    145 C48        -6.2280   -2.0000   -1.1960 c3        1 MOL     -0.043986
    146 C49        -5.3790   -2.4260    0.0180 c         1 MOL      0.273246
    147 O21        -5.5370   -3.5500    0.5580 o         1 MOL     -0.497427
    148 C50        -5.7930   -2.4840   -2.6430 c3        1 MOL     -0.056917
    149 C51        -5.0900   -3.8860   -2.6670 c3        1 MOL     -0.189655
    150 C52        -4.8000   -4.2640   -4.0290 c         1 MOL      0.687949
    151 O22        -5.8160   -4.3460   -4.8220 o         1 MOL     -0.740500
    152 O23        -3.5810   -4.3950   -4.4180 o         1 MOL     -0.740500
    153 H65        -6.2560   -0.2070   -2.2920 hn        1 MOL      0.272290
    154 H66        -7.1920   -2.4140   -0.9190 h1        1 MOL      0.108893
    155 H67        -5.1290   -1.8050   -3.1930 hc        1 MOL      0.059314
    156 H68        -6.6490   -2.4980   -3.3210 hc        1 MOL      0.059314
    157 H69        -5.6950   -4.6330   -2.1500 hc        1 MOL      0.034382
    158 H70        -4.1610   -3.9150   -2.0980 hc        1 MOL      0.034382
    159 N14        -4.4760   -1.5570    0.4280 n         1 MOL     -0.034753
    160 C53        -3.5340   -1.9120    1.5690 c3        1 MOL      0.059807
    161 C54        -4.1040   -1.4130    2.8830 c         1 MOL      0.406063
    162 O24        -3.8780   -1.9170    3.9940 o         1 MOL     -0.555161
    163 C55        -2.1380   -1.2460    1.1790 c3        1 MOL     -0.343815
    164 C56        -1.5530   -1.8250   -0.1000 c3        1 MOL     -0.042861
    165 C57        -0.2950   -1.0830   -0.5240 c         1 MOL      0.844536
    166 O25         0.7560   -1.7190   -0.4380 o         1 MOL     -0.791940
    167 O26        -0.2900    0.0680   -0.8810 o         1 MOL     -0.791940
    168 H71        -4.4110   -0.7090   -0.1120 hn        1 MOL      0.157138
    169 H72        -3.4650   -2.9800    1.7710 h1        1 MOL      0.076235
    170 H73        -1.5050   -1.3380    2.0680 hc        1 MOL      0.130245
    171 H74        -2.2580   -0.1660    1.1190 hc        1 MOL      0.130245
    172 H75        -2.2370   -1.7330   -0.9380 hc        1 MOL      0.038075
    173 H76        -1.2720   -2.8680    0.0530 hc        1 MOL      0.038075
    174 N15        -4.8610   -0.3070    2.8040 n         1 MOL     -0.020936
    175 C58        -5.6250    0.2690    3.9710 c3        1 MOL     -0.119238
    176 H77        -6.6940    0.2280    3.7600 h1        1 MOL      0.056612
    177 H78        -5.4100   -0.3110    4.8680 h1        1 MOL      0.056612
    178 H79        -5.3250    1.3050    4.1260 h1        1 MOL      0.056612
    179 H80        -4.9890    0.0570    1.8700 hn        1 MOL     -0.035344
    180 Ca1         2.4880    0.1330   -1.4700 Ca        1 MOL      1.803737
    181 O27         2.0090    2.5930   -2.3210 oh        1 MOL     -0.913528
    182 H81         1.6560    3.4250   -2.6510 ho        1 MOL      0.424134
    183 H82         2.8300    2.4840   -2.7870 ho        1 MOL      0.424134
    184 O28         1.0420   -0.9090   -3.6570 oh        1 MOL     -0.913528
    185 H83         1.6750   -1.5510   -3.9850 ho        1 MOL      0.424134
    186 H84         0.1970   -1.2070   -3.9940 ho        1 MOL      0.424134
@<TRIPOS>BOND
     1    1    2 1   
     2    1    4 1   
     3    1    5 1   
     4    1    6 1   
     5    2    3 2   
     6    2    7 1   
     7    7    8 1   
     8    7   15 1   
     9    8    9 1   
    10    8   11 1   
    11    8   16 1   
    12    9   10 2   
    13    9   19 1   
    14   11   12 1   
    15   11   17 1   
    16   11   18 1   
    17   12   13 1   
    18   12   14 1   
    19   19   20 1   
    20   19   27 1   
    21   20   21 1   
    22   20   23 1   
    23   20   28 1   
    24   21   22 2   
    25   21   38 1   
    26   23   24 1   
    27   23   25 1   
    28   23   29 1   
    29   24   26 1   
    30   24   30 1   
    31   24   31 1   
    32   25   32 1   
    33   25   33 1   
    34   25   34 1   
    35   26   35 1   
    36   26   36 1   
    37   26   37 1   
    38   38   39 1   
    39   38   46 1   
    40   39   40 1   
    41   39   42 1   
    42   39   47 1   
    43   40   41 2   
    44   40   50 1   
    45   42   43 1   
    46   42   48 1   
    47   42   49 1   
    48   43   44 1   
    49   43   45 1   
    50   50   51 1   
    51   50   54 1   
    52   51   52 1   
    53   51   55 1   
    54   51   56 1   
    55   52   53 2   
    56   52   57 1   
    57   57   58 1   
    58   57   65 1   
    59   58   59 1   
    60   58   61 1   
    61   58   66 1   
    62   59   60 2   
    63   59   69 1   
    64   61   62 1   
    65   61   67 1   
    66   61   68 1   
    67   62   63 1   
    68   62   64 1   
    69   69   70 1   
    70   69   73 1   
    71   70   71 1   
    72   70   74 1   
    73   70   75 1   
    74   71   72 2   
    75   71   76 1   
    76   76   77 1   
    77   76   85 1   
    78   77   78 1   
    79   77   80 1   
    80   77   86 1   
    81   78   79 2   
    82   78   93 1   
    83   80   81 1   
    84   80   87 1   
    85   80   88 1   
    86   81   82 1   
    87   81   89 1   
    88   81   90 1   
    89   82   83 1   
    90   82   84 2   
    91   83   91 1   
    92   83   92 1   
    93   93   94 1   
    94   93  100 1   
    95   94   95 1   
    96   94   97 1   
    97   94  101 1   
    98   95   96 2   
    99   95  109 1   
   100   97   98 1   
   101   97   99 1   
   102   97  102 1   
   103   98  103 1   
   104   98  104 1   
   105   98  105 1   
   106   99  106 1   
   107   99  107 1   
   108   99  108 1   
   109  109  110 1   
   110  109  117 1   
   111  110  111 1   
   112  110  113 1   
   113  110  118 1   
   114  111  112 2   
   115  111  123 1   
   116  113  114 1   
   117  113  119 1   
   118  113  120 1   
   119  114  115 1   
   120  114  116 2   
   121  115  121 1   
   122  115  122 1   
   123  123  124 1   
   124  123  135 1   
   125  124  125 1   
   126  124  127 1   
   127  124  136 1   
   128  125  126 2   
   129  125  144 1   
   130  127  128 1   
   131  127  137 1   
   132  127  138 1   
   133  128  129 ar  
   134  128  130 ar  
   135  129  131 ar  
   136  129  139 1   
   137  130  132 ar  
   138  130  140 1   
   139  131  133 ar  
   140  131  141 1   
   141  132  133 ar  
   142  132  142 1   
   143  133  134 1   
   144  134  143 1   
   145  144  145 1   
   146  144  153 1   
   147  145  146 1   
   148  145  148 1   
   149  145  154 1   
   150  146  147 2   
   151  146  159 1   
   152  148  149 1   
   153  148  155 1   
   154  148  156 1   
   155  149  150 1   
   156  149  157 1   
   157  149  158 1   
   158  150  151 1   
   159  150  152 1   
   160  159  160 1   
   161  159  168 1   
   162  160  161 1   
   163  160  163 1   
   164  160  169 1   
   165  161  162 2   
   166  161  174 1   
   167  163  164 1   
   168  163  170 1   
   169  163  171 1   
   170  164  165 1   
   171  164  172 1   
   172  164  173 1   
   173  165  166 1   
   174  165  167 1   
   175  174  175 1   
   176  174  179 1   
   177  175  176 1   
   178  175  177 1   
   179  175  178 1   
   180  181  182 1   
   181  181  183 1   
   182  184  185 1   
   183  184  186 1   
@<TRIPOS>SUBSTRUCTURE
     1 MOL         1 TEMP              0 ****  ****    0 ROOT
