@<TRIPOS>MOLECULE
MOL
  172   171     1     0     0
SMALL
resp


@<TRIPOS>ATOM
      1 C1          0.1540    3.2830    5.7540 c3        1 MOL     -0.274773
      2 C2         -0.1840    3.0580    4.2730 c         1 MOL      0.782320
      3 O1          0.4530    3.6660    3.4550 o         1 MOL     -0.585675
      4 H1          0.9810    3.9890    5.8330 hc        1 MOL      0.059476
      5 H2         -0.7170    3.6870    6.2680 hc        1 MOL      0.059476
      6 H3          0.4390    2.3350    6.2090 hc        1 MOL      0.059476
      7 N1         -1.2190    2.2710    3.9510 n         1 MOL     -0.754249
      8 C3         -1.8660    2.1290    2.6660 c3        1 MOL      0.563292
      9 C4         -2.3320    3.5250    2.0900 c         1 MOL      0.477575
     10 O2         -3.1120    4.2670    2.7240 o         1 MOL     -0.594993
     11 C5         -2.9080    1.0610    2.7960 c3        1 MOL     -0.540180
     12 C6         -3.6980    0.7030    1.5740 c         1 MOL      0.845788
     13 O3         -3.4050    1.1850    0.4860 o         1 MOL     -0.683512
     14 O4         -4.6730   -0.0790    1.6920 o         1 MOL     -0.683512
     15 H4         -1.6760    1.7910    4.7040 hn        1 MOL      0.320517
     16 H5         -1.1820    1.6990    1.9400 h1        1 MOL     -0.057051
     17 H6         -3.5930    1.4680    3.5490 hc        1 MOL      0.095304
     18 H7         -2.3250    0.2100    3.1460 hc        1 MOL      0.095304
     19 N2         -1.8710    3.8490    0.8650 n         1 MOL     -0.261130
     20 C7         -2.0080    5.1260    0.2000 c3        1 MOL      0.175496
     21 C8         -3.1610    5.2180   -0.7330 c         1 MOL      0.384101
     22 O5         -3.6980    6.3270   -0.8850 o         1 MOL     -0.557328
     23 C9         -0.7190    5.5030   -0.4630 c3        1 MOL     -0.344010
     24 H8         -1.4870    3.0470    0.3840 hn        1 MOL      0.082781
     25 H9         -2.1780    5.8810    0.9680 h1        1 MOL      0.067707
     26 H10        -0.8780    6.3810   -1.0820 hc        1 MOL      0.087127
     27 H11         0.1080    5.6240    0.2270 hc        1 MOL      0.087127
     28 H12        -0.4870    4.7450   -1.2040 hc        1 MOL      0.087127
     29 N3         -3.5620    4.1000   -1.3740 n         1 MOL     -0.229728
     30 C10        -4.7570    3.9190   -2.2550 c3        1 MOL      0.167160
     31 C11        -5.9600    3.5280   -1.4970 c         1 MOL      0.424884
     32 O6         -7.0810    3.9990   -1.8150 o         1 MOL     -0.588146
     33 C12        -4.5490    2.9740   -3.5100 c3        1 MOL     -0.363255
     34 C13        -3.8850    1.7010   -3.1710 c         1 MOL      0.771009
     35 O7         -4.2920    1.1020   -2.1310 o         1 MOL     -0.731072
     36 O8         -2.7720    1.2550   -3.6670 o         1 MOL     -0.731072
     37 H13        -3.0250    3.2710   -1.1610 hn        1 MOL      0.231033
     38 H14        -4.9820    4.9170   -2.6460 h1        1 MOL      0.055980
     39 H15        -3.9420    3.5910   -4.1740 hc        1 MOL      0.086969
     40 H16        -5.4760    2.7270   -4.0080 hc        1 MOL      0.086969
     41 N4         -5.7910    2.7250   -0.4470 n         1 MOL     -0.124052
     42 C14        -6.9420    2.2430    0.4090 c3        1 MOL     -0.249766
     43 C15        -7.3710    0.8170    0.1170 c         1 MOL      0.645445
     44 O9         -8.4750    0.4510    0.4700 o         1 MOL     -0.617631
     45 H17        -4.9210    2.2060   -0.4360 hn        1 MOL      0.039413
     46 H18        -7.8120    2.8790    0.2490 h1        1 MOL      0.119765
     47 H19        -6.6700    2.1770    1.4670 h1        1 MOL      0.119765
     48 N5         -6.6140    0.0960   -0.7760 n         1 MOL     -0.360901
     49 C16        -7.1000   -1.1720   -1.4100 c3        1 MOL     -0.053221
     50 C17        -7.0050   -2.3440   -0.4080 c         1 MOL      0.423973
     51 O10        -7.3640   -3.4630   -0.7190 o         1 MOL     -0.555546
     52 C18        -6.2740   -1.4810   -2.7430 c3        1 MOL     -0.285552
     53 C19        -4.9160   -2.0830   -2.3500 c         1 MOL      0.592269
     54 N6         -4.5760   -3.2750   -2.8330 n         1 MOL     -0.648896
     55 O11        -4.1930   -1.5510   -1.5080 o         1 MOL     -0.527834
     56 H20        -5.7990    0.5650   -1.1440 hn        1 MOL      0.321928
     57 H21        -8.1690   -1.0610   -1.5780 h1        1 MOL      0.116458
     58 H22        -6.0840   -0.5490   -3.2810 hc        1 MOL      0.114343
     59 H23        -6.8780   -2.1160   -3.3800 hc        1 MOL      0.114343
     60 H24        -5.0710   -3.7540   -3.5790 hn        1 MOL      0.318049
     61 H25        -3.7180   -3.6830   -2.4970 hn        1 MOL      0.318049
     62 N7         -6.3590   -2.1600    0.7710 n         1 MOL     -0.011386
     63 C20        -6.2060   -3.0880    1.8780 c3        1 MOL     -0.376026
     64 C21        -5.0320   -3.9760    1.8940 c         1 MOL      0.587716
     65 O12        -4.9400   -5.0120    2.6700 o         1 MOL     -0.601333
     66 H26        -5.9720   -1.2330    0.9180 hn        1 MOL      0.157725
     67 H27        -7.0080   -3.8150    1.8640 h1        1 MOL      0.138454
     68 H28        -6.1110   -2.5940    2.8470 h1        1 MOL      0.138454
     69 N8         -4.0220   -3.6260    1.0700 n         1 MOL     -0.129238
     70 C22        -2.7250   -4.3210    1.0820 c3        1 MOL     -0.253963
     71 C23        -1.5630   -3.2910    1.0230 c         1 MOL      0.694073
     72 O13        -1.5950   -2.2820    0.3020 o         1 MOL     -0.633038
     73 C24        -2.5330   -5.4820   -0.0250 c3        1 MOL      0.462051
     74 C25        -3.6600   -6.4680   -0.1540 c3        1 MOL     -0.381609
     75 O14        -2.5210   -4.8880   -1.3390 oh        1 MOL     -0.625240
     76 H29        -4.1710   -2.7780    0.5280 hn        1 MOL      0.116734
     77 H30        -2.6090   -4.7510    2.0760 h1        1 MOL      0.085655
     78 H31        -1.6420   -6.0780    0.1980 h1        1 MOL     -0.010554
     79 H32        -2.7200   -5.4920   -2.0620 ho        1 MOL      0.395538
     80 H33        -3.9730   -6.8910    0.8000 hc        1 MOL      0.091805
     81 H34        -4.4950   -6.0230   -0.6890 hc        1 MOL      0.091805
     82 H35        -3.2740   -7.2520   -0.8040 hc        1 MOL      0.091805
     83 N9         -0.4400   -3.5720    1.6640 n         1 MOL     -0.472011
     84 C26         0.7340   -2.7310    1.6330 c3        1 MOL     -0.132054
     85 C27         1.4870   -2.8770    0.3210 c         1 MOL      0.777612
     86 O15         1.5620   -3.9950   -0.0400 o         1 MOL     -0.626817
     87 C28         1.6880   -3.0800    2.8080 c3        1 MOL     -0.027535
     88 C29         1.0230   -3.1120    4.2060 c3        1 MOL      0.158976
     89 C30         2.7840   -1.9360    2.8350 c3        1 MOL     -0.023558
     90 C31         1.8740   -3.6450    5.3650 c3        1 MOL     -0.412404
     91 H36        -0.3560   -4.3570    2.2960 hn        1 MOL      0.279473
     92 H37         0.3940   -1.7050    1.7440 h1        1 MOL      0.114873
     93 H38         2.1320   -4.0530    2.5970 hc        1 MOL      0.029140
     94 H39         0.0470   -3.5720    4.2700 hc        1 MOL     -0.001645
     95 H40         0.7640   -2.0980    4.5030 hc        1 MOL     -0.001645
     96 H41         3.3920   -1.9930    3.7370 hc        1 MOL     -0.010234
     97 H42         3.4670   -2.2150    2.0360 hc        1 MOL     -0.010234
     98 H43         2.3200   -0.9580    2.7350 hc        1 MOL     -0.010234
     99 H44         2.1260   -4.6770    5.1560 hc        1 MOL      0.096893
    100 H45         2.7560   -3.0100    5.4350 hc        1 MOL      0.096893
    101 H46         1.3250   -3.4650    6.2970 hc        1 MOL      0.096893
    102 N10         1.8710   -1.7880   -0.2890 n         1 MOL     -0.563046
    103 C32         2.8830   -1.8220   -1.3480 c3        1 MOL      0.190061
    104 C33         4.2580   -1.3130   -0.8720 c         1 MOL      0.266769
    105 O16         4.2230   -0.7390    0.2320 o         1 MOL     -0.200013
    106 C34         2.4300   -1.0620   -2.5910 c3        1 MOL     -0.434502
    107 C35         1.0140   -1.2690   -3.0510 c         1 MOL      0.814600
    108 O17         0.7480   -1.8960   -4.1270 o         1 MOL     -0.697280
    109 O18         0.1380   -0.6730   -2.4290 o         1 MOL     -0.697280
    110 H47         1.6830   -0.8790    0.1050 hn        1 MOL      0.466223
    111 H48         2.9740   -2.8810   -1.6130 h1        1 MOL      0.039454
    112 H49         3.0760   -1.3750   -3.4020 hc        1 MOL      0.092024
    113 H50         2.5290   -0.0000   -2.3750 hc        1 MOL      0.092024
    114 N11         5.3610   -1.5810   -1.4980 n         1 MOL     -0.528331
    115 C36         6.7310   -1.2710   -1.0740 c3        1 MOL      0.309650
    116 C37         7.0000    0.1850   -0.8010 c         1 MOL      0.293517
    117 O19         7.5100    0.4570    0.2430 o         1 MOL     -0.451933
    118 C38         7.7840   -1.8660   -2.0970 c3        1 MOL     -0.290099
    119 C39         9.1600   -1.6930   -1.5380 ca        1 MOL      0.066992
    120 C40        10.0640   -0.8700   -2.2130 ca        1 MOL     -0.099599
    121 C41         9.6130   -2.3770   -0.3270 ca        1 MOL     -0.099599
    122 C42        11.4080   -0.7800   -1.7820 ca        1 MOL     -0.166201
    123 C43        10.8930   -2.2460    0.1120 ca        1 MOL     -0.166201
    124 C44        11.7990   -1.4480   -0.6270 ca        1 MOL     -0.068608
    125 H51         5.1780   -2.1040   -2.3440 hn        1 MOL      0.312793
    126 H52         6.8120   -1.7720   -0.1170 h1        1 MOL      0.071656
    127 H53         7.7440   -1.2070   -2.9680 hc        1 MOL      0.095671
    128 H54         7.6220   -2.8950   -2.4270 hc        1 MOL      0.095671
    129 H55         9.8430   -0.4160   -3.1690 ha        1 MOL      0.105058
    130 H56         8.9630   -3.0740    0.1900 ha        1 MOL      0.105058
    131 H57        12.1350   -0.2150   -2.3370 ha        1 MOL      0.124808
    132 H58        11.2230   -2.5980    1.0740 ha        1 MOL      0.124808
    133 H59        12.8170   -1.3350   -0.2690 ha        1 MOL      0.089467
    134 N12         6.5990    1.2050   -1.6040 n         1 MOL     -0.084267
    135 C45         6.5270    2.6490   -1.2470 c3        1 MOL      0.048001
    136 C46         5.6730    2.9880    0.0510 c         1 MOL      0.292172
    137 O20         5.9920    3.8570    0.8690 o         1 MOL     -0.466130
    138 C47         5.8830    3.2980   -2.4830 c3        1 MOL      0.010513
    139 C48         6.2170    2.4010   -3.6270 c3        1 MOL     -0.155844
    140 C49         6.1000    1.0060   -2.9730 c3        1 MOL     -0.055706
    141 H60         7.5690    2.9340   -1.1020 h1        1 MOL      0.061254
    142 H61         4.8000    3.3690   -2.4440 hc        1 MOL      0.031253
    143 H62         6.3360    4.2900   -2.5740 hc        1 MOL      0.031253
    144 H63         5.4490    2.4820   -4.3980 hc        1 MOL      0.063007
    145 H64         7.2510    2.5710   -3.9390 hc        1 MOL      0.063007
    146 H65         5.0460    0.7060   -2.9480 h1        1 MOL      0.052671
    147 H66         6.6270    0.3550   -3.6660 h1        1 MOL      0.052671
    148 N13         4.5290    2.2550    0.2640 n         1 MOL     -0.180863
    149 C50         3.7560    2.4470    1.4600 c3        1 MOL     -0.207365
    150 C51         4.4270    1.8330    2.7090 c         1 MOL      0.544445
    151 O21         4.3610    2.4130    3.8050 o         1 MOL     -0.579493
    152 C52         2.3820    1.7770    1.2580 c3        1 MOL      0.079589
    153 C53         1.6140    2.2010   -0.0590 c3        1 MOL     -0.185286
    154 C54         0.3260    1.4680   -0.1920 c         1 MOL      0.641510
    155 O22        -0.6280    1.8680   -0.8770 o         1 MOL     -0.696451
    156 O23         0.1780    0.3190    0.3100 o         1 MOL     -0.696451
    157 H67         4.2780    1.4600   -0.3080 hn        1 MOL      0.205737
    158 H68         3.4950    3.4780    1.6890 h1        1 MOL      0.153590
    159 H69         1.6780    1.9870    2.0700 hc        1 MOL     -0.003033
    160 H70         2.4890    0.7010    1.1310 hc        1 MOL     -0.003033
    161 H71         2.1600    1.9990   -0.9840 hc        1 MOL      0.066924
    162 H72         1.3430    3.2560   -0.0480 hc        1 MOL      0.066924
    163 N14         5.0200    0.6490    2.5180 n         1 MOL     -0.022900
    164 C55         5.8870   -0.0350    3.5280 c3        1 MOL     -0.319001
    165 H73         6.8690    0.4390    3.5440 h1        1 MOL      0.108794
    166 H74         5.4290    0.0450    4.5140 h1        1 MOL      0.108794
    167 H75         5.9970   -1.0860    3.2610 h1        1 MOL      0.108794
    168 H76         4.9350    0.2620    1.5810 hn        1 MOL     -0.014868
    169 Ca1        -2.0030   -0.1670   -1.1930 Ca        1 MOL      1.723855
    170 O24        -1.7230   -2.5710   -2.7670 oh        1 MOL     -0.792588
    171 H77        -0.8400   -2.4430   -3.1070 ho        1 MOL      0.354196
    172 H78        -1.6390   -3.2930   -2.1470 ho        1 MOL      0.354196
@<TRIPOS>BOND
     1    1    2 1   
     2    1    4 1   
     3    1    5 1   
     4    1    6 1   
     5    2    3 2   
     6    2    7 1   
     7    7    8 1   
     8    7   15 1   
     9    8    9 1   
    10    8   11 1   
    11    8   16 1   
    12    9   10 2   
    13    9   19 1   
    14   11   12 1   
    15   11   17 1   
    16   11   18 1   
    17   12   13 1   
    18   12   14 1   
    19   19   20 1   
    20   19   24 1   
    21   20   21 1   
    22   20   23 1   
    23   20   25 1   
    24   21   22 2   
    25   21   29 1   
    26   23   26 1   
    27   23   27 1   
    28   23   28 1   
    29   29   30 1   
    30   29   37 1   
    31   30   31 1   
    32   30   33 1   
    33   30   38 1   
    34   31   32 2   
    35   31   41 1   
    36   33   34 1   
    37   33   39 1   
    38   33   40 1   
    39   34   35 1   
    40   34   36 1   
    41   41   42 1   
    42   41   45 1   
    43   42   43 1   
    44   42   46 1   
    45   42   47 1   
    46   43   44 2   
    47   43   48 1   
    48   48   49 1   
    49   48   56 1   
    50   49   50 1   
    51   49   52 1   
    52   49   57 1   
    53   50   51 2   
    54   50   62 1   
    55   52   53 1   
    56   52   58 1   
    57   52   59 1   
    58   53   54 1   
    59   53   55 2   
    60   54   60 1   
    61   54   61 1   
    62   62   63 1   
    63   62   66 1   
    64   63   64 1   
    65   63   67 1   
    66   63   68 1   
    67   64   65 2   
    68   64   69 1   
    69   69   70 1   
    70   69   76 1   
    71   70   71 1   
    72   70   73 1   
    73   70   77 1   
    74   71   72 2   
    75   71   83 1   
    76   73   74 1   
    77   73   75 1   
    78   73   78 1   
    79   74   80 1   
    80   74   81 1   
    81   74   82 1   
    82   75   79 1   
    83   83   84 1   
    84   83   91 1   
    85   84   85 1   
    86   84   87 1   
    87   84   92 1   
    88   85   86 2   
    89   85  102 1   
    90   87   88 1   
    91   87   89 1   
    92   87   93 1   
    93   88   90 1   
    94   88   94 1   
    95   88   95 1   
    96   89   96 1   
    97   89   97 1   
    98   89   98 1   
    99   90   99 1   
   100   90  100 1   
   101   90  101 1   
   102  102  103 1   
   103  102  110 1   
   104  103  104 1   
   105  103  106 1   
   106  103  111 1   
   107  104  105 2   
   108  104  114 1   
   109  106  107 1   
   110  106  112 1   
   111  106  113 1   
   112  107  108 1   
   113  107  109 1   
   114  114  115 1   
   115  114  125 1   
   116  115  116 1   
   117  115  118 1   
   118  115  126 1   
   119  116  117 2   
   120  116  134 1   
   121  118  119 1   
   122  118  127 1   
   123  118  128 1   
   124  119  120 ar  
   125  119  121 ar  
   126  120  122 ar  
   127  120  129 1   
   128  121  123 ar  
   129  121  130 1   
   130  122  124 ar  
   131  122  131 1   
   132  123  124 ar  
   133  123  132 1   
   134  124  133 1   
   135  134  135 1   
   136  134  140 1   
   137  135  136 1   
   138  135  138 1   
   139  135  141 1   
   140  136  137 2   
   141  136  148 1   
   142  138  139 1   
   143  138  142 1   
   144  138  143 1   
   145  139  140 1   
   146  139  144 1   
   147  139  145 1   
   148  140  146 1   
   149  140  147 1   
   150  148  149 1   
   151  148  157 1   
   152  149  150 1   
   153  149  152 1   
   154  149  158 1   
   155  150  151 2   
   156  150  163 1   
   157  152  153 1   
   158  152  159 1   
   159  152  160 1   
   160  153  154 1   
   161  153  161 1   
   162  153  162 1   
   163  154  155 1   
   164  154  156 1   
   165  163  164 1   
   166  163  168 1   
   167  164  165 1   
   168  164  166 1   
   169  164  167 1   
   170  170  171 1   
   171  170  172 1   
@<TRIPOS>SUBSTRUCTURE
     1 MOL         1 TEMP              0 ****  ****    0 ROOT
