@<TRIPOS>MOLECULE
MOL
  189   185     1     0     0
SMALL
resp


@<TRIPOS>ATOM
      1 C1          0.1520   -4.0910    6.1030 c3        1 MOL     -0.333728
      2 C2          0.5060   -3.4500    4.7060 c         1 MOL      0.753415
      3 O1          0.5930   -2.2450    4.5760 o         1 MOL     -0.631613
      4 H1          0.1990   -3.3240    6.8760 hc        1 MOL      0.080942
      5 H2         -0.8540   -4.5090    6.0670 hc        1 MOL      0.080942
      6 H3          0.8670   -4.8810    6.3320 hc        1 MOL      0.080942
      7 N1          0.7570   -4.2970    3.7400 n         1 MOL     -0.666390
      8 C3          1.3470   -3.9970    2.3820 c3        1 MOL      0.423355
      9 C4          0.9720   -5.0810    1.3470 c         1 MOL      0.373486
     10 O2          0.5940   -6.1830    1.7560 o         1 MOL     -0.592153
     11 C5          2.8560   -3.9390    2.5130 c3        1 MOL     -0.274478
     12 C6          3.6650   -3.6520    1.2620 c         1 MOL      0.631320
     13 O3          4.5160   -4.5380    0.8320 o         1 MOL     -0.657170
     14 O4          3.2510   -2.7280    0.5300 o         1 MOL     -0.657170
     15 H4          0.8050   -5.2700    3.9760 hn        1 MOL      0.327150
     16 H5          0.9290   -3.0870    1.9550 h1        1 MOL     -0.113729
     17 H6          3.1610   -4.8310    3.0520 hc        1 MOL      0.039513
     18 H7          3.1270   -3.1690    3.2310 hc        1 MOL      0.039513
     19 N2          1.1240   -4.6930    0.1190 n         1 MOL     -0.157270
     20 C7          1.0690   -5.4340   -1.1430 c3        1 MOL     -0.137667
     21 C8          2.3780   -5.3220   -2.0150 c         1 MOL      0.509246
     22 O5          2.7930   -6.3110   -2.6270 o         1 MOL     -0.605625
     23 C9         -0.1810   -4.9920   -1.9570 c3        1 MOL      0.157230
     24 C10        -1.5010   -5.4340   -1.3250 c3        1 MOL     -0.082938
     25 C11        -0.2050   -5.3370   -3.4380 c3        1 MOL     -0.289712
     26 C12        -2.8140   -4.7910   -1.9040 c3        1 MOL     -0.140549
     27 H8          1.2150   -3.6890    0.0000 hn        1 MOL      0.515839
     28 H9          1.0500   -6.4650   -0.7870 h1        1 MOL      0.073832
     29 H10        -0.2010   -3.9200   -1.7790 hc        1 MOL      0.033691
     30 H11        -1.3740   -5.0300   -0.3110 hc        1 MOL      0.016766
     31 H12        -1.5890   -6.5170   -1.2700 hc        1 MOL      0.016766
     32 H13        -0.3120   -6.4150   -3.5910 hc        1 MOL      0.060710
     33 H14        -0.9890   -4.8120   -3.9790 hc        1 MOL      0.060710
     34 H15         0.6290   -4.9920   -4.0400 hc        1 MOL      0.060710
     35 H16        -3.1050   -5.2690   -2.8370 hc        1 MOL      0.046127
     36 H17        -3.6460   -4.9390   -1.2170 hc        1 MOL      0.046127
     37 H18        -2.6120   -3.7240   -1.9650 hc        1 MOL      0.046127
     38 N3          3.0200   -4.1990   -2.0060 n         1 MOL     -0.103530
     39 C13         3.9010   -3.8450   -3.1000 c3        1 MOL     -0.000506
     40 C14         5.2680   -3.2740   -2.7170 c         1 MOL      0.324579
     41 O6          6.1310   -2.9550   -3.5520 o         1 MOL     -0.558003
     42 C15         3.3110   -2.7640   -4.0110 c3        1 MOL     -0.061983
     43 C16         2.5970   -1.5970   -3.2900 c         1 MOL      0.591142
     44 O7          3.0400   -1.2700   -2.1390 o         1 MOL     -0.658913
     45 O8          1.6540   -0.9390   -3.8530 o         1 MOL     -0.658913
     46 H19         2.6980   -3.4020   -1.4690 hn        1 MOL      0.025366
     47 H20         4.1390   -4.6900   -3.7390 h1        1 MOL      0.086097
     48 H21         2.5320   -3.2910   -4.5790 hc        1 MOL      0.015171
     49 H22         4.0800   -2.4870   -4.7300 hc        1 MOL      0.015171
     50 N4          5.4870   -3.0900   -1.4070 n         1 MOL     -0.042888
     51 C17         6.6890   -2.6530   -0.7480 c3        1 MOL     -0.004548
     52 C18         7.2490   -1.2920   -1.1590 c         1 MOL      0.343739
     53 O9          8.4870   -1.1900   -1.0800 o         1 MOL     -0.588882
     54 H23         4.8150   -3.4710   -0.7590 hn        1 MOL      0.070386
     55 H24         7.4660   -3.4020   -0.8970 h1        1 MOL      0.045213
     56 H25         6.5760   -2.6930    0.3410 h1        1 MOL      0.045213
     57 N5          6.3960   -0.3800   -1.6040 n         1 MOL      0.008123
     58 C19         6.8220    0.9170   -2.1710 c3        1 MOL     -0.138599
     59 C20         7.2270    1.9510   -1.1160 c         1 MOL      0.554371
     60 O10         7.8000    2.9540   -1.5140 o         1 MOL     -0.535551
     61 C21         5.7430    1.5900   -3.0420 c3        1 MOL     -0.298895
     62 C22         4.4750    1.9080   -2.2910 c         1 MOL      0.819205
     63 O11         4.3150    1.3550   -1.1710 o         1 MOL     -0.693103
     64 O12         3.6740    2.6610   -2.8230 o         1 MOL     -0.693103
     65 H26         5.4150   -0.6300   -1.6310 hn        1 MOL      0.139118
     66 H27         7.6660    0.7160   -2.8240 h1        1 MOL      0.117973
     67 H28         5.5020    0.9030   -3.8490 hc        1 MOL      0.091029
     68 H29         6.0780    2.5180   -3.5140 hc        1 MOL      0.091029
     69 N6          7.0080    1.6020    0.1930 n         1 MOL     -0.528893
     70 C23         7.3320    2.6020    1.2830 c3        1 MOL      0.011024
     71 C24         6.3620    3.7430    1.4650 c         1 MOL      0.411119
     72 O13         6.8050    4.6970    2.1650 o         1 MOL     -0.564446
     73 H30         6.3090    0.8910    0.3600 hn        1 MOL      0.338734
     74 H31         8.3530    2.9750    1.2430 h1        1 MOL      0.073684
     75 H32         7.3910    2.0880    2.2320 h1        1 MOL      0.073684
     76 N7          5.1800    3.5740    0.9040 n         1 MOL     -0.313942
     77 C25         3.9420    4.2280    1.3500 c3        1 MOL      0.178756
     78 C26         2.8020    3.1730    1.6030 c         1 MOL      0.193757
     79 O14         2.9950    2.0050    1.2190 o         1 MOL     -0.402823
     80 C27         3.4870    5.2660    0.3340 c3        1 MOL     -0.032751
     81 C28         4.4020    6.5050    0.0440 c3        1 MOL     -0.090396
     82 C29         3.7700    7.6830   -0.6970 c         1 MOL      0.646606
     83 N8          3.6200    7.6010   -1.9840 n         1 MOL     -0.818391
     84 O15         3.3260    8.5640   -0.0230 o         1 MOL     -0.592506
     85 H33         5.0110    2.7840    0.3040 hn        1 MOL      0.240861
     86 H34         4.1290    4.6900    2.3230 h1        1 MOL      0.038829
     87 H35         2.5170    5.6400    0.6470 hc        1 MOL      0.037963
     88 H36         3.4050    4.7740   -0.6380 hc        1 MOL      0.037963
     89 H37         5.1530    6.2620   -0.7090 hc        1 MOL      0.035287
     90 H38         4.8750    6.8580    0.9650 hc        1 MOL      0.035287
     91 H39         3.9770    6.8750   -2.6000 hn        1 MOL      0.373061
     92 H40         2.9340    8.2500   -2.3360 hn        1 MOL      0.373061
     93 N9          1.6740    3.5380    2.2000 n         1 MOL     -0.256654
     94 C30         0.4310    2.8260    2.3230 c3        1 MOL      0.068332
     95 C31        -0.6950    3.4270    1.4810 c         1 MOL      0.432198
     96 O16        -0.7520    4.6350    1.1550 o         1 MOL     -0.587171
     97 C32         0.1280    2.7130    3.8270 c3        1 MOL      0.137962
     98 C33        -0.0890    4.0510    4.4380 c3        1 MOL     -0.176228
     99 C34        -0.9510    1.6950    4.1160 c3        1 MOL     -0.176228
    100 H41         1.6460    4.4530    2.6340 hn        1 MOL      0.221033
    101 H42         0.6790    1.8300    1.9540 h1        1 MOL      0.127364
    102 H43         1.0990    2.3780    4.1730 hc        1 MOL     -0.033463
    103 H44        -0.1750    4.1020    5.5130 hc        1 MOL      0.036747
    104 H45         0.6720    4.8060    4.2310 hc        1 MOL      0.036747
    105 H46        -1.0420    4.3910    4.0410 hc        1 MOL      0.036747
    106 H47        -0.8010    0.7190    3.6390 hc        1 MOL      0.036747
    107 H48        -1.1480    1.6660    5.1910 hc        1 MOL      0.036747
    108 H49        -1.8470    2.0580    3.6200 hc        1 MOL      0.036747
    109 N10        -1.5440    2.5780    0.9390 n         1 MOL     -0.175650
    110 C35        -2.7010    2.8390    0.0160 c3        1 MOL      0.198999
    111 C36        -3.9900    2.4420    0.7470 c         1 MOL      0.094217
    112 O17        -3.9380    1.5610    1.5890 o         1 MOL     -0.293561
    113 C37        -2.4510    1.9460   -1.1880 c3        1 MOL     -0.465265
    114 C38        -3.6320    1.9830   -2.2040 c         1 MOL      0.787449
    115 N11        -3.9710    3.0920   -2.8870 n         1 MOL     -0.809744
    116 O18        -4.3870    1.0650   -2.3270 o         1 MOL     -0.547854
    117 H50        -1.3120    1.5960    0.9500 hn        1 MOL      0.224874
    118 H51        -2.8580    3.8770   -0.2990 h1        1 MOL      0.023659
    119 H52        -2.4210    0.9740   -0.6990 hc        1 MOL      0.165926
    120 H53        -1.5310    2.2230   -1.6920 hc        1 MOL      0.165926
    121 H54        -3.6040    4.0200   -2.7140 hn        1 MOL      0.334951
    122 H55        -4.7650    3.0850   -3.5060 hn        1 MOL      0.334951
    123 N12        -5.2180    2.8380    0.3530 n         1 MOL     -0.122308
    124 C39        -6.4920    2.4670    0.8910 c3        1 MOL      0.141108
    125 C40        -6.8070    0.9360    0.8140 c         1 MOL      0.132524
    126 O19        -7.4970    0.4200    1.6640 o         1 MOL     -0.560697
    127 C41        -7.6000    3.3000    0.0890 c3        1 MOL     -0.429260
    128 C42        -7.6330    3.0970   -1.4020 ca        1 MOL      0.182741
    129 C43        -7.2290    4.1940   -2.1850 ca        1 MOL     -0.201711
    130 C44        -8.1040    1.9480   -1.9730 ca        1 MOL     -0.201711
    131 C45        -7.2040    4.0510   -3.5570 ca        1 MOL     -0.244470
    132 C46        -8.1370    1.7940   -3.3430 ca        1 MOL     -0.244470
    133 C47        -7.5560    2.7980   -4.1630 ca        1 MOL      0.368724
    134 O20        -7.3120    2.5210   -5.4170 oh        1 MOL     -0.562412
    135 H56        -5.2550    3.6360   -0.2650 hn        1 MOL      0.163811
    136 H57        -6.5380    2.7120    1.9510 h1        1 MOL      0.062670
    137 H58        -7.4940    4.3450    0.3450 hc        1 MOL      0.131030
    138 H59        -8.6010    2.9780    0.3820 hc        1 MOL      0.131030
    139 H60        -6.9500    5.1520   -1.7710 ha        1 MOL      0.120061
    140 H61        -8.4240    1.1660   -1.3060 ha        1 MOL      0.120061
    141 H62        -6.9590    4.8780   -4.2050 ha        1 MOL      0.112065
    142 H63        -8.4100    0.8660   -3.8290 ha        1 MOL      0.112065
    143 H64        -7.4330    1.5820   -5.5890 ho        1 MOL      0.439624
    144 N13        -6.3030    0.0860   -0.0900 n         1 MOL      0.759453
    145 C48        -6.3560   -1.3940   -0.0220 c3        1 MOL     -0.572915
    146 C49        -5.4470   -2.0640    1.0490 c         1 MOL      0.723012
    147 O21        -5.5510   -3.2700    1.2710 o         1 MOL     -0.555393
    148 C50        -6.0010   -1.8510   -1.4780 c3        1 MOL      0.069250
    149 C51        -7.1400   -1.7200   -2.5040 c3        1 MOL     -0.081833
    150 C52        -8.5450   -2.0340   -2.0040 c         1 MOL      0.620688
    151 O22        -9.4390   -1.2300   -2.2220 o         1 MOL     -0.686974
    152 O23        -8.7780   -3.0870   -1.3970 o         1 MOL     -0.686974
    153 H65        -5.6800    0.5680   -0.7280 hn        1 MOL     -0.028295
    154 H66        -7.3990   -1.6300    0.1960 h1        1 MOL      0.182867
    155 H67        -5.7130   -2.9040   -1.4860 hc        1 MOL      0.005722
    156 H68        -5.1080   -1.3630   -1.8470 hc        1 MOL      0.005722
    157 H69        -6.8290   -2.2990   -3.3650 hc        1 MOL     -0.020896
    158 H70        -7.1940   -0.6690   -2.8050 hc        1 MOL     -0.020896
    159 N14        -4.4950   -1.3580    1.6210 n         1 MOL     -0.459597
    160 C53        -3.5770   -1.9010    2.6460 c3        1 MOL     -0.044790
    161 C54        -3.9300   -1.3660    4.0770 c         1 MOL      0.541105
    162 O24        -3.9250   -2.1110    5.0530 o         1 MOL     -0.546037
    163 C55        -2.0910   -1.5210    2.2240 c3        1 MOL      0.247256
    164 C56        -1.6910   -1.8620    0.7530 c3        1 MOL      0.023115
    165 C57        -0.3170   -1.3280    0.2800 c         1 MOL      0.724024
    166 O25         0.5380   -2.0400   -0.1490 o         1 MOL     -0.758457
    167 O26        -0.0460   -0.1150    0.3740 o         1 MOL     -0.758457
    168 H71        -4.3450   -0.4250    1.2680 hn        1 MOL      0.054548
    169 H72        -3.5420   -2.9970    2.6170 h1        1 MOL      0.086015
    170 H73        -1.3350   -2.0300    2.8170 hc        1 MOL     -0.072853
    171 H74        -2.0250   -0.4430    2.3700 hc        1 MOL     -0.072853
    172 H75        -2.4870   -1.5200    0.0860 hc        1 MOL     -0.021098
    173 H76        -1.6410   -2.9460    0.7490 hc        1 MOL     -0.021098
    174 N15        -4.2790   -0.0420    4.1570 n         1 MOL     -0.234756
    175 C58        -4.6260    0.6250    5.4570 c3        1 MOL     -0.177724
    176 H77        -3.7110    0.9330    5.9620 h1        1 MOL      0.080787
    177 H78        -5.2450    1.5010    5.2620 h1        1 MOL      0.080787
    178 H79        -5.1740   -0.0740    6.0890 h1        1 MOL      0.080787
    179 H80        -4.0940    0.5880    3.3920 hn        1 MOL      0.162820
    180 Ca1         2.5970   -0.2510    0.1540 Ca        1 MOL      1.706001
    181 O27         1.8970   -0.5250    2.6750 oh        1 MOL     -0.945811
    182 H81         1.3030   -1.1290    3.1190 ho        1 MOL      0.433848
    183 H82         2.3570   -0.0740    3.3800 ho        1 MOL      0.433848
    184 O28         1.7280    1.9560   -1.3990 oh        1 MOL     -0.945811
    185 H83         2.5920    1.9130   -1.8180 ho        1 MOL      0.433848
    186 H84         1.2450    2.6150   -1.8990 ho        1 MOL      0.433848
    187 O29         4.8450   -0.0970    1.5960 oh        1 MOL     -0.945811
    188 H85         4.3880    0.3460    2.3170 ho        1 MOL      0.433848
    189 H86         5.6400   -0.4450    1.9960 ho        1 MOL      0.433848
@<TRIPOS>BOND
     1    1    2 1   
     2    1    4 1   
     3    1    5 1   
     4    1    6 1   
     5    2    3 2   
     6    2    7 1   
     7    7    8 1   
     8    7   15 1   
     9    8    9 1   
    10    8   11 1   
    11    8   16 1   
    12    9   10 2   
    13    9   19 1   
    14   11   12 1   
    15   11   17 1   
    16   11   18 1   
    17   12   13 1   
    18   12   14 1   
    19   19   20 1   
    20   19   27 1   
    21   20   21 1   
    22   20   23 1   
    23   20   28 1   
    24   21   22 2   
    25   21   38 1   
    26   23   24 1   
    27   23   25 1   
    28   23   29 1   
    29   24   26 1   
    30   24   30 1   
    31   24   31 1   
    32   25   32 1   
    33   25   33 1   
    34   25   34 1   
    35   26   35 1   
    36   26   36 1   
    37   26   37 1   
    38   38   39 1   
    39   38   46 1   
    40   39   40 1   
    41   39   42 1   
    42   39   47 1   
    43   40   41 2   
    44   40   50 1   
    45   42   43 1   
    46   42   48 1   
    47   42   49 1   
    48   43   44 1   
    49   43   45 1   
    50   50   51 1   
    51   50   54 1   
    52   51   52 1   
    53   51   55 1   
    54   51   56 1   
    55   52   53 2   
    56   52   57 1   
    57   57   58 1   
    58   57   65 1   
    59   58   59 1   
    60   58   61 1   
    61   58   66 1   
    62   59   60 2   
    63   59   69 1   
    64   61   62 1   
    65   61   67 1   
    66   61   68 1   
    67   62   63 1   
    68   62   64 1   
    69   69   70 1   
    70   69   73 1   
    71   70   71 1   
    72   70   74 1   
    73   70   75 1   
    74   71   72 2   
    75   71   76 1   
    76   76   77 1   
    77   76   85 1   
    78   77   78 1   
    79   77   80 1   
    80   77   86 1   
    81   78   79 2   
    82   78   93 1   
    83   80   81 1   
    84   80   87 1   
    85   80   88 1   
    86   81   82 1   
    87   81   89 1   
    88   81   90 1   
    89   82   83 1   
    90   82   84 2   
    91   83   91 1   
    92   83   92 1   
    93   93   94 1   
    94   93  100 1   
    95   94   95 1   
    96   94   97 1   
    97   94  101 1   
    98   95   96 2   
    99   95  109 1   
   100   97   98 1   
   101   97   99 1   
   102   97  102 1   
   103   98  103 1   
   104   98  104 1   
   105   98  105 1   
   106   99  106 1   
   107   99  107 1   
   108   99  108 1   
   109  109  110 1   
   110  109  117 1   
   111  110  111 1   
   112  110  113 1   
   113  110  118 1   
   114  111  112 2   
   115  111  123 1   
   116  113  114 1   
   117  113  119 1   
   118  113  120 1   
   119  114  115 1   
   120  114  116 2   
   121  115  121 1   
   122  115  122 1   
   123  123  124 1   
   124  123  135 1   
   125  124  125 1   
   126  124  127 1   
   127  124  136 1   
   128  125  126 2   
   129  125  144 1   
   130  127  128 1   
   131  127  137 1   
   132  127  138 1   
   133  128  129 ar  
   134  128  130 ar  
   135  129  131 ar  
   136  129  139 1   
   137  130  132 ar  
   138  130  140 1   
   139  131  133 ar  
   140  131  141 1   
   141  132  133 ar  
   142  132  142 1   
   143  133  134 1   
   144  134  143 1   
   145  144  145 1   
   146  144  153 1   
   147  145  146 1   
   148  145  148 1   
   149  145  154 1   
   150  146  147 2   
   151  146  159 1   
   152  148  149 1   
   153  148  155 1   
   154  148  156 1   
   155  149  150 1   
   156  149  157 1   
   157  149  158 1   
   158  150  151 1   
   159  150  152 1   
   160  159  160 1   
   161  159  168 1   
   162  160  161 1   
   163  160  163 1   
   164  160  169 1   
   165  161  162 2   
   166  161  174 1   
   167  163  164 1   
   168  163  170 1   
   169  163  171 1   
   170  164  165 1   
   171  164  172 1   
   172  164  173 1   
   173  165  166 1   
   174  165  167 1   
   175  174  175 1   
   176  174  179 1   
   177  175  176 1   
   178  175  177 1   
   179  175  178 1   
   180  181  182 1   
   181  181  183 1   
   182  184  185 1   
   183  184  186 1   
   184  187  188 1   
   185  187  189 1   
@<TRIPOS>SUBSTRUCTURE
     1 MOL         1 TEMP              0 ****  ****    0 ROOT
