@<TRIPOS>MOLECULE
MOL
  189   185     1     0     0
SMALL
resp


@<TRIPOS>ATOM
      1 C1          0.4460   -2.8270    6.3980 c3        1 MOL     -0.418428
      2 C2          0.7270   -2.6850    4.8490 c         1 MOL      0.605636
      3 O1          0.6480   -1.5390    4.3190 o         1 MOL     -0.577764
      4 H1          0.5740   -3.8680    6.6960 hc        1 MOL      0.115338
      5 H2          1.1460   -2.2030    6.9540 hc        1 MOL      0.115338
      6 H3         -0.5740   -2.5120    6.6140 hc        1 MOL      0.115338
      7 N1          1.2110   -3.7160    4.1620 n         1 MOL     -0.460874
      8 C3          1.7820   -3.6940    2.7850 c3        1 MOL      0.087094
      9 C4          1.5260   -4.9290    2.0050 c         1 MOL      0.268328
     10 O2          1.5580   -6.0910    2.5500 o         1 MOL     -0.548645
     11 C5          3.2890   -3.5500    2.8290 c3        1 MOL     -0.004581
     12 C6          3.8210   -3.4790    1.4520 c         1 MOL      0.673826
     13 O3          3.7860   -2.4070    0.7920 o         1 MOL     -0.644608
     14 O4          4.3200   -4.5160    1.0360 o         1 MOL     -0.644608
     15 H4          1.3620   -4.5580    4.7030 hn        1 MOL      0.293045
     16 H5          1.4080   -2.8170    2.2740 h1        1 MOL      0.053845
     17 H6          3.7390   -4.3990    3.3410 hc        1 MOL     -0.030051
     18 H7          3.6630   -2.6870    3.3740 hc        1 MOL     -0.030051
     19 N2          1.2710   -4.7300    0.7150 n         1 MOL      0.158930
     20 C7          1.0870   -5.7830   -0.2370 c3        1 MOL     -0.109261
     21 C8          1.8630   -5.5980   -1.5560 c         1 MOL      0.398530
     22 O5          1.5570   -6.2710   -2.5440 o         1 MOL     -0.559820
     23 C9         -0.4030   -6.1200   -0.4500 c3        1 MOL      0.302450
     24 C10        -1.2030   -4.9190   -0.9330 c3        1 MOL     -0.085725
     25 C11        -0.9470   -6.6780    0.8540 c3        1 MOL     -0.006833
     26 C12        -2.6550   -5.2360   -1.3020 c3        1 MOL     -0.471164
     27 H8          0.9290   -3.7950    0.5490 hn        1 MOL      0.042782
     28 H9          1.4750   -6.7020    0.1750 h1        1 MOL      0.084865
     29 H10        -0.5330   -6.9410   -1.1520 hc        1 MOL     -0.066938
     30 H11        -0.6820   -4.7940   -1.8900 hc        1 MOL      0.066203
     31 H12        -1.0530   -3.9990   -0.3810 hc        1 MOL      0.066203
     32 H13        -1.0840   -5.8390    1.5310 hc        1 MOL     -0.035855
     33 H14        -1.9500   -7.1070    0.7520 hc        1 MOL     -0.035855
     34 H15        -0.2790   -7.4290    1.2570 hc        1 MOL     -0.035855
     35 H16        -2.6960   -6.0470   -2.0340 hc        1 MOL      0.132167
     36 H17        -3.2160   -5.5070   -0.4010 hc        1 MOL      0.132167
     37 H18        -3.0790   -4.3660   -1.7980 hc        1 MOL      0.132167
     38 N3          2.8970   -4.7680   -1.5770 n         1 MOL     -0.144783
     39 C13         3.7320   -4.3730   -2.7450 c3        1 MOL     -0.016702
     40 C14         5.1530   -3.8170   -2.5320 c         1 MOL      0.384730
     41 O6          5.9960   -3.9890   -3.4980 o         1 MOL     -0.557946
     42 C15         2.8780   -3.4740   -3.6040 c3        1 MOL     -0.153680
     43 C16         2.4670   -2.0960   -2.9400 c         1 MOL      0.705078
     44 O7          3.0670   -1.4990   -2.0460 o         1 MOL     -0.696640
     45 O8          1.5410   -1.5100   -3.4870 o         1 MOL     -0.696640
     46 H19         3.0870   -4.2180   -0.7590 hn        1 MOL     -0.002726
     47 H20         3.7830   -5.2740   -3.3490 h1        1 MOL      0.080114
     48 H21         1.9930   -4.0380   -3.9300 hc        1 MOL      0.060961
     49 H22         3.3920   -3.2320   -4.5290 hc        1 MOL      0.060961
     50 N4          5.5320   -3.2160   -1.3340 n         1 MOL     -0.047411
     51 C17         6.8800   -2.7710   -1.0850 c3        1 MOL     -0.297237
     52 C18         7.2560   -1.4020   -1.6160 c         1 MOL      0.589119
     53 O9          8.4210   -1.0100   -1.5270 o         1 MOL     -0.641002
     54 H23         4.8580   -3.0540   -0.5950 hn        1 MOL      0.123976
     55 H24         7.6450   -3.4410   -1.4730 h1        1 MOL      0.115158
     56 H25         7.0050   -2.8330   -0.0050 h1        1 MOL      0.115158
     57 N5          6.3320   -0.6130   -2.1580 n         1 MOL     -0.215989
     58 C19         6.5940    0.6850   -2.8630 c3        1 MOL      0.009927
     59 C20         6.9920    1.8580   -1.9910 c         1 MOL      0.439481
     60 O10         7.5840    2.8190   -2.4120 o         1 MOL     -0.531613
     61 C21         5.3430    1.0040   -3.6210 c3        1 MOL     -0.350999
     62 C22         4.1200    1.3910   -2.8350 c         1 MOL      0.893693
     63 O11         4.0720    1.2700   -1.5920 o         1 MOL     -0.739085
     64 O12         3.2120    1.9920   -3.4450 o         1 MOL     -0.739085
     65 H26         5.4300   -1.0580   -2.2680 hn        1 MOL      0.171391
     66 H27         7.3410    0.4640   -3.6250 h1        1 MOL      0.088488
     67 H28         5.2340    0.1390   -4.2820 hc        1 MOL      0.095720
     68 H29         5.5790    1.8680   -4.2610 hc        1 MOL      0.095720
     69 N6          6.7260    1.7890   -0.6300 n         1 MOL     -0.148508
     70 C23         7.1210    2.7960    0.4260 c3        1 MOL     -0.188180
     71 C24         6.0230    3.7920    0.8230 c         1 MOL      0.543640
     72 O13         6.3270    4.6830    1.6640 o         1 MOL     -0.632134
     73 H30         6.0930    1.0870   -0.2850 hn        1 MOL      0.086823
     74 H31         8.0140    3.3740    0.1750 h1        1 MOL      0.097415
     75 H32         7.3900    2.2900    1.3540 h1        1 MOL      0.097415
     76 N7          4.8130    3.6760    0.3250 n         1 MOL     -0.284550
     77 C25         3.6330    4.4640    0.8250 c3        1 MOL      0.203741
     78 C26         2.5110    3.4710    1.1190 c         1 MOL      0.360736
     79 O14         2.5450    2.3470    0.6740 o         1 MOL     -0.508408
     80 C27         3.2870    5.5680   -0.1690 c3        1 MOL     -0.287507
     81 C28         4.4380    6.6110   -0.2580 c3        1 MOL     -0.160784
     82 C29         4.2270    7.8300   -1.2130 c         1 MOL      0.679615
     83 N8          4.9650    8.9310   -1.0840 n         1 MOL     -0.791990
     84 O15         3.3390    7.8530   -2.0750 o         1 MOL     -0.546640
     85 H33         4.5840    2.9170   -0.3020 hn        1 MOL      0.244504
     86 H34         4.0100    4.8940    1.7540 h1        1 MOL      0.009331
     87 H35         2.4350    6.1610    0.1530 hc        1 MOL      0.106470
     88 H36         3.1110    4.9570   -1.0540 hc        1 MOL      0.106470
     89 H37         5.3700    6.0940   -0.4920 hc        1 MOL      0.066805
     90 H38         4.5760    7.0400    0.7350 hc        1 MOL      0.066805
     91 H39         5.8060    8.7820   -0.5410 hn        1 MOL      0.341382
     92 H40         4.9920    9.5950   -1.8410 hn        1 MOL      0.341382
     93 N9          1.4800    4.0010    1.8050 n         1 MOL     -0.317539
     94 C30         0.3370    3.2310    2.2450 c3        1 MOL      0.011569
     95 C31        -0.9070    3.4380    1.3040 c         1 MOL      0.327681
     96 O16        -1.4150    4.5430    1.3330 o         1 MOL     -0.565269
     97 C32         0.0320    3.5790    3.7410 c3        1 MOL      0.259662
     98 C33        -1.1910    2.9510    4.2190 c3        1 MOL     -0.249337
     99 C34         1.1890    3.1680    4.6760 c3        1 MOL     -0.249337
    100 H41         1.6240    4.9320    2.1660 hn        1 MOL      0.247718
    101 H42         0.5920    2.1750    2.3080 h1        1 MOL      0.134203
    102 H43        -0.0540    4.6600    3.8210 hc        1 MOL     -0.031441
    103 H44        -1.2740    1.8690    4.0650 hc        1 MOL      0.042517
    104 H45        -1.2950    3.2400    5.2650 hc        1 MOL      0.042517
    105 H46        -2.0300    3.4320    3.7110 hc        1 MOL      0.042517
    106 H47         2.1360    3.5140    4.2550 hc        1 MOL      0.042517
    107 H48         0.9870    3.6620    5.6260 hc        1 MOL      0.042517
    108 H49         1.2660    2.0910    4.7980 hc        1 MOL      0.042517
    109 N10        -1.3330    2.4940    0.5290 n         1 MOL     -0.018207
    110 C35        -2.5340    2.5820   -0.3280 c3        1 MOL      0.025980
    111 C36        -3.8730    2.5520    0.4500 c         1 MOL      0.308114
    112 O17        -3.9730    2.1640    1.6070 o         1 MOL     -0.310816
    113 C37        -2.4490    1.4440   -1.3600 c3        1 MOL     -0.254693
    114 C38        -3.5050    1.6210   -2.4290 c         1 MOL      0.774842
    115 N11        -3.4870    2.7640   -3.1390 n         1 MOL     -0.850968
    116 O18        -4.4030    0.8430   -2.6260 o         1 MOL     -0.520168
    117 H50        -0.7470    1.6750    0.5010 hn        1 MOL      0.107752
    118 H51        -2.5760    3.5500   -0.8380 h1        1 MOL      0.059523
    119 H52        -2.5260    0.4490   -0.9370 hc        1 MOL      0.107396
    120 H53        -1.4390    1.5040   -1.7660 hc        1 MOL      0.107396
    121 H54        -2.7400    3.4460   -3.1420 hn        1 MOL      0.364406
    122 H55        -4.0960    2.8060   -3.9490 hn        1 MOL      0.364406
    123 N12        -4.9870    3.0010   -0.1990 n         1 MOL     -0.309848
    124 C39        -6.3180    2.9420    0.2980 c3        1 MOL      0.100662
    125 C40        -6.7690    1.5510    0.6860 c         1 MOL      0.326545
    126 O19        -7.6930    1.3880    1.4830 o         1 MOL     -0.527520
    127 C41        -7.2740    3.6810   -0.7210 c3        1 MOL     -0.139733
    128 C42        -7.7690    2.7920   -1.8870 ca        1 MOL      0.120907
    129 C43        -9.0720    2.2070   -1.7570 ca        1 MOL     -0.252244
    130 C44        -7.0750    2.6520   -3.0930 ca        1 MOL     -0.252244
    131 C45        -9.5110    1.3130   -2.7460 ca        1 MOL     -0.229734
    132 C46        -7.4960    1.8060   -4.1380 ca        1 MOL     -0.229734
    133 C47        -8.6920    1.1150   -3.9000 ca        1 MOL      0.270477
    134 O20        -9.1600    0.2560   -4.8390 oh        1 MOL     -0.463044
    135 H56        -4.7670    3.4120   -1.0970 hn        1 MOL      0.206399
    136 H57        -6.4090    3.4560    1.2560 h1        1 MOL      0.056768
    137 H58        -6.9100    4.5770   -1.1950 hc        1 MOL      0.047382
    138 H59        -8.1650    3.9370   -0.1490 hc        1 MOL      0.047382
    139 H60        -9.6990    2.3700   -0.8910 ha        1 MOL      0.153742
    140 H61        -6.2280    3.2890   -3.2930 ha        1 MOL      0.153742
    141 H62       -10.4380    0.7820   -2.6270 ha        1 MOL      0.165865
    142 H63        -6.9550    1.7680   -5.0750 ha        1 MOL      0.165865
    143 H64        -9.9080   -0.2670   -4.5460 ho        1 MOL      0.352024
    144 N13        -6.1480    0.5000    0.0880 n         1 MOL      0.008662
    145 C48        -6.3960   -0.9430    0.4800 c3        1 MOL     -0.103165
    146 C49        -5.4660   -1.4880    1.5180 c         1 MOL      0.374237
    147 O21        -5.7260   -2.5570    2.0650 o         1 MOL     -0.539347
    148 C50        -6.5650   -1.9880   -0.6750 c3        1 MOL      0.047123
    149 C51        -7.4770   -1.4290   -1.7960 c3        1 MOL     -0.070480
    150 C52        -7.5280   -2.4610   -2.9140 c         1 MOL      0.724326
    151 O22        -6.4390   -2.7090   -3.5060 o         1 MOL     -0.748144
    152 O23        -8.6120   -3.1080   -3.1840 o         1 MOL     -0.748144
    153 H65        -5.6170    0.6650   -0.7620 hn        1 MOL      0.107654
    154 H66        -7.4090   -0.9950    0.8850 h1        1 MOL      0.099467
    155 H67        -7.0480   -2.8790   -0.2910 hc        1 MOL      0.016558
    156 H68        -5.5710   -2.2730   -1.0240 hc        1 MOL      0.016558
    157 H69        -7.0470   -0.5290   -2.2370 hc        1 MOL     -0.008975
    158 H70        -8.4990   -1.2720   -1.4460 hc        1 MOL     -0.008975
    159 N14        -4.4170   -0.7530    1.9450 n         1 MOL     -0.122206
    160 C53        -3.4740   -1.0360    3.0020 c3        1 MOL     -0.012149
    161 C54        -3.7070   -0.2640    4.2680 c         1 MOL      0.487589
    162 O24        -3.6140   -0.8950    5.3030 o         1 MOL     -0.578697
    163 C55        -2.0440   -0.6550    2.4320 c3        1 MOL      0.162629
    164 C56        -1.4570   -1.5770    1.3440 c3        1 MOL     -0.517330
    165 C57        -0.0730   -1.0890    0.9710 c         1 MOL      0.685568
    166 O25         0.3220    0.0770    1.1190 o         1 MOL     -0.628945
    167 O26         0.7190   -1.8330    0.3240 o         1 MOL     -0.628945
    168 H71        -4.2880    0.1550    1.5230 hn        1 MOL     -0.013791
    169 H72        -3.3700   -2.0990    3.2120 h1        1 MOL      0.065834
    170 H73        -1.2940   -0.6780    3.2260 hc        1 MOL      0.001250
    171 H74        -2.1420    0.3740    2.0930 hc        1 MOL      0.001250
    172 H75        -2.0590   -1.5560    0.4440 hc        1 MOL      0.178918
    173 H76        -1.4210   -2.5950    1.7380 hc        1 MOL      0.178918
    174 N15        -4.1030    0.9980    4.2740 n         1 MOL     -0.110103
    175 C58        -4.6780    1.6920    5.3980 c3        1 MOL     -0.260530
    176 H77        -5.4910    2.3300    5.0520 h1        1 MOL      0.090367
    177 H78        -5.0650    0.9660    6.1140 h1        1 MOL      0.090367
    178 H79        -3.9140    2.3030    5.8770 h1        1 MOL      0.090367
    179 H80        -4.1790    1.4920    3.3990 hn        1 MOL      0.146377
    180 Ca1         2.7230   -0.1770    0.1880 Ca        1 MOL      1.713261
    181 O27         5.3090   -0.0290    1.3350 oh        1 MOL     -0.858805
    182 H81         4.9780   -0.1400    2.2210 ho        1 MOL      0.409687
    183 H82         6.2620   -0.1420    1.4210 ho        1 MOL      0.409687
    184 O28         2.5260   -0.0230    2.8450 oh        1 MOL     -0.858805
    185 H83         3.2530   -0.2980    3.3990 ho        1 MOL      0.409687
    186 H84         1.7420   -0.2960    3.3250 ho        1 MOL      0.409687
    187 O29         1.0460    0.6670   -2.0070 oh        1 MOL     -0.858805
    188 H85         1.2730   -0.0400   -2.6120 ho        1 MOL      0.409687
    189 H86         1.5850    1.4100   -2.2960 ho        1 MOL      0.409687
@<TRIPOS>BOND
     1    1    2 1   
     2    1    4 1   
     3    1    5 1   
     4    1    6 1   
     5    2    3 2   
     6    2    7 1   
     7    7    8 1   
     8    7   15 1   
     9    8    9 1   
    10    8   11 1   
    11    8   16 1   
    12    9   10 2   
    13    9   19 1   
    14   11   12 1   
    15   11   17 1   
    16   11   18 1   
    17   12   13 1   
    18   12   14 1   
    19   19   20 1   
    20   19   27 1   
    21   20   21 1   
    22   20   23 1   
    23   20   28 1   
    24   21   22 2   
    25   21   38 1   
    26   23   24 1   
    27   23   25 1   
    28   23   29 1   
    29   24   26 1   
    30   24   30 1   
    31   24   31 1   
    32   25   32 1   
    33   25   33 1   
    34   25   34 1   
    35   26   35 1   
    36   26   36 1   
    37   26   37 1   
    38   38   39 1   
    39   38   46 1   
    40   39   40 1   
    41   39   42 1   
    42   39   47 1   
    43   40   41 2   
    44   40   50 1   
    45   42   43 1   
    46   42   48 1   
    47   42   49 1   
    48   43   44 1   
    49   43   45 1   
    50   50   51 1   
    51   50   54 1   
    52   51   52 1   
    53   51   55 1   
    54   51   56 1   
    55   52   53 2   
    56   52   57 1   
    57   57   58 1   
    58   57   65 1   
    59   58   59 1   
    60   58   61 1   
    61   58   66 1   
    62   59   60 2   
    63   59   69 1   
    64   61   62 1   
    65   61   67 1   
    66   61   68 1   
    67   62   63 1   
    68   62   64 1   
    69   69   70 1   
    70   69   73 1   
    71   70   71 1   
    72   70   74 1   
    73   70   75 1   
    74   71   72 2   
    75   71   76 1   
    76   76   77 1   
    77   76   85 1   
    78   77   78 1   
    79   77   80 1   
    80   77   86 1   
    81   78   79 2   
    82   78   93 1   
    83   80   81 1   
    84   80   87 1   
    85   80   88 1   
    86   81   82 1   
    87   81   89 1   
    88   81   90 1   
    89   82   83 1   
    90   82   84 2   
    91   83   91 1   
    92   83   92 1   
    93   93   94 1   
    94   93  100 1   
    95   94   95 1   
    96   94   97 1   
    97   94  101 1   
    98   95   96 2   
    99   95  109 1   
   100   97   98 1   
   101   97   99 1   
   102   97  102 1   
   103   98  103 1   
   104   98  104 1   
   105   98  105 1   
   106   99  106 1   
   107   99  107 1   
   108   99  108 1   
   109  109  110 1   
   110  109  117 1   
   111  110  111 1   
   112  110  113 1   
   113  110  118 1   
   114  111  112 2   
   115  111  123 1   
   116  113  114 1   
   117  113  119 1   
   118  113  120 1   
   119  114  115 1   
   120  114  116 2   
   121  115  121 1   
   122  115  122 1   
   123  123  124 1   
   124  123  135 1   
   125  124  125 1   
   126  124  127 1   
   127  124  136 1   
   128  125  126 2   
   129  125  144 1   
   130  127  128 1   
   131  127  137 1   
   132  127  138 1   
   133  128  129 ar  
   134  128  130 ar  
   135  129  131 ar  
   136  129  139 1   
   137  130  132 ar  
   138  130  140 1   
   139  131  133 ar  
   140  131  141 1   
   141  132  133 ar  
   142  132  142 1   
   143  133  134 1   
   144  134  143 1   
   145  144  145 1   
   146  144  153 1   
   147  145  146 1   
   148  145  148 1   
   149  145  154 1   
   150  146  147 2   
   151  146  159 1   
   152  148  149 1   
   153  148  155 1   
   154  148  156 1   
   155  149  150 1   
   156  149  157 1   
   157  149  158 1   
   158  150  151 1   
   159  150  152 1   
   160  159  160 1   
   161  159  168 1   
   162  160  161 1   
   163  160  163 1   
   164  160  169 1   
   165  161  162 2   
   166  161  174 1   
   167  163  164 1   
   168  163  170 1   
   169  163  171 1   
   170  164  165 1   
   171  164  172 1   
   172  164  173 1   
   173  165  166 1   
   174  165  167 1   
   175  174  175 1   
   176  174  179 1   
   177  175  176 1   
   178  175  177 1   
   179  175  178 1   
   180  181  182 1   
   181  181  183 1   
   182  184  185 1   
   183  184  186 1   
   184  187  188 1   
   185  187  189 1   
@<TRIPOS>SUBSTRUCTURE
     1 MOL         1 TEMP              0 ****  ****    0 ROOT
