@<TRIPOS>MOLECULE
MOL
  189   185     1     0     0
SMALL
resp


@<TRIPOS>ATOM
      1 C1          0.1990    2.1610    5.5710 c3        1 MOL     -0.551360
      2 C2         -0.2930    2.2110    4.1680 c         1 MOL      0.714515
      3 O1          0.4210    2.5600    3.2810 o         1 MOL     -0.567016
      4 H1          0.1780    3.1630    6.0000 hc        1 MOL      0.140036
      5 H2         -0.4410    1.5020    6.1570 hc        1 MOL      0.140036
      6 H3          1.2210    1.7820    5.5850 hc        1 MOL      0.140036
      7 N1         -1.4580    1.7470    3.9810 n         1 MOL     -0.561166
      8 C3         -2.1060    1.6340    2.6510 c3        1 MOL      0.493499
      9 C4         -2.5650    2.9580    2.0220 c         1 MOL     -0.053801
     10 O2         -3.6430    3.4740    2.3530 o         1 MOL     -0.499751
     11 C5         -3.2770    0.6310    2.7890 c3        1 MOL     -0.244353
     12 C6         -3.9740    0.3480    1.4100 c         1 MOL      0.812919
     13 O3         -5.0560   -0.2040    1.4120 o         1 MOL     -0.702078
     14 O4         -3.3030    0.4740    0.3800 o         1 MOL     -0.702078
     15 H4         -1.9820    1.5830    4.8280 hn        1 MOL      0.287564
     16 H5         -1.4060    1.1570    1.9680 h1        1 MOL     -0.072020
     17 H6         -4.0120    0.9210    3.5420 hc        1 MOL      0.040092
     18 H7         -2.8410   -0.2920    3.1570 hc        1 MOL      0.040092
     19 N2         -1.7940    3.4970    1.1250 n         1 MOL      0.004726
     20 C7         -2.0530    4.7010    0.3570 c3        1 MOL     -0.511071
     21 C8         -2.8030    4.6520   -0.9940 c         1 MOL      0.871538
     22 O5         -2.9500    5.6740   -1.6790 o         1 MOL     -0.610288
     23 C9         -0.7530    5.4680    0.2490 c3        1 MOL      0.334895
     24 C10        -0.1310    5.9250    1.5710 c3        1 MOL      0.004670
     25 C11        -1.1090    6.9280    2.2030 c3        1 MOL     -0.025033
     26 C12        -1.9920    6.2750    3.2340 c3        1 MOL      0.066774
     27 N3         -2.7390    7.2530    3.9590 n4        1 MOL     -0.469682
     28 H8         -0.8730    3.0930    0.9750 hn        1 MOL      0.374400
     29 H9         -2.6350    5.3780    0.9900 h1        1 MOL      0.091767
     30 H10        -0.8170    6.3440   -0.3980 hc        1 MOL     -0.062360
     31 H11         0.0130    4.8200   -0.1810 hc        1 MOL     -0.062360
     32 H12         0.7390    6.5560    1.4240 hc        1 MOL     -0.017568
     33 H13         0.1040    5.1090    2.2550 hc        1 MOL     -0.017568
     34 H14        -1.7240    7.4600    1.4800 hc        1 MOL      0.026731
     35 H15        -0.5750    7.7740    2.6350 hc        1 MOL      0.026731
     36 H16        -1.3690    5.7260    3.9360 hx        1 MOL      0.101742
     37 H17        -2.6560    5.6210    2.6570 hx        1 MOL      0.101742
     38 H18        -3.4390    6.9210    4.6080 hn        1 MOL      0.346008
     39 H19        -2.1350    7.8180    4.5430 hn        1 MOL      0.346008
     40 H20        -3.3250    7.8450    3.3950 hn        1 MOL      0.346008
     41 N4         -3.5510    3.6120   -1.3430 n         1 MOL     -0.439765
     42 C13        -4.4530    3.6240   -2.4650 c3        1 MOL     -0.161271
     43 C14        -5.7820    2.8410   -2.2550 c         1 MOL      0.497277
     44 O6         -6.5410    2.7380   -3.2400 o         1 MOL     -0.486582
     45 C15        -3.7270    3.1820   -3.7340 c3        1 MOL     -0.209044
     46 C16        -2.6870    2.1630   -3.6870 c         1 MOL      0.706751
     47 O7         -1.5920    2.4500   -4.1850 o         1 MOL     -0.688287
     48 O8         -2.7850    1.1470   -2.9230 o         1 MOL     -0.688287
     49 H21        -3.4300    2.7750   -0.7780 hn        1 MOL      0.278121
     50 H22        -4.6760    4.6780   -2.6600 h1        1 MOL      0.144727
     51 H23        -3.0300    3.9840   -3.9900 hc        1 MOL      0.075737
     52 H24        -4.4110    2.9060   -4.5340 hc        1 MOL      0.075737
     53 N5         -6.1380    2.2990   -1.1020 n         1 MOL     -0.384462
     54 C17        -7.4520    1.7510   -0.8040 c3        1 MOL     -0.148569
     55 C18        -7.6810    0.4450   -1.5440 c         1 MOL      0.429316
     56 O9         -8.7860    0.2560   -1.9590 o         1 MOL     -0.549530
     57 H25        -5.5440    2.3690   -0.2830 hn        1 MOL      0.311391
     58 H26        -8.1610    2.5360   -1.0690 h1        1 MOL      0.108012
     59 H27        -7.5000    1.6510    0.2820 h1        1 MOL      0.108012
     60 N6         -6.6860   -0.3850   -1.6720 n         1 MOL     -0.015567
     61 C19        -6.8720   -1.7210   -2.1730 c3        1 MOL     -0.089769
     62 C20        -6.9610   -2.7220   -1.0130 c         1 MOL      0.346251
     63 O10        -7.1800   -3.9340   -1.2130 o         1 MOL     -0.508906
     64 C21        -5.7880   -2.1190   -3.2230 c3        1 MOL     -0.120021
     65 C22        -4.3390   -2.0430   -2.7270 c         1 MOL      0.772231
     66 O11        -3.3210   -1.9650   -3.5020 o         1 MOL     -0.782346
     67 O12        -4.0120   -1.9740   -1.5460 o         1 MOL     -0.782346
     68 H28        -5.7740   -0.1650   -1.3070 hn        1 MOL      0.099700
     69 H29        -7.7810   -1.7340   -2.7830 h1        1 MOL      0.126762
     70 H30        -5.8240   -1.3000   -3.9450 hc        1 MOL      0.065635
     71 H31        -6.0130   -3.0070   -3.7950 hc        1 MOL      0.065635
     72 N7         -6.7920   -2.3750    0.2620 n         1 MOL     -0.207015
     73 C23        -6.6520   -3.3070    1.3910 c3        1 MOL     -0.229370
     74 C24        -5.4160   -4.1640    1.5270 c         1 MOL      0.644975
     75 O13        -5.5080   -5.1160    2.2550 o         1 MOL     -0.591819
     76 H32        -6.6520   -1.4000    0.4710 hn        1 MOL      0.234584
     77 H33        -7.4150   -4.0900    1.3870 h1        1 MOL      0.107641
     78 H34        -6.8500   -2.6930    2.2670 h1        1 MOL      0.107641
     79 N8         -4.2890   -3.8180    0.9150 n         1 MOL     -0.329454
     80 C25        -2.9530   -4.4430    1.0630 c3        1 MOL     -0.005909
     81 C26        -1.7670   -3.3990    1.1930 c         1 MOL      0.513094
     82 O14        -1.8450   -2.3460    0.6040 o         1 MOL     -0.564770
     83 C27        -2.6480   -5.3690   -0.1390 c3        1 MOL      0.533926
     84 C28        -2.9540   -6.8420    0.2630 c3        1 MOL     -0.327903
     85 O15        -3.3640   -5.0050   -1.3070 oh        1 MOL     -0.667610
     86 H35        -4.2890   -2.9550    0.3940 hn        1 MOL      0.238566
     87 H36        -3.0330   -5.0280    1.9730 h1        1 MOL      0.022738
     88 H37        -1.5620   -5.3230   -0.2420 h1        1 MOL     -0.098981
     89 H38        -3.3210   -4.0540   -1.2900 ho        1 MOL      0.480468
     90 H39        -3.0920   -7.4030   -0.6580 hc        1 MOL      0.078192
     91 H40        -2.0920   -7.2740    0.7640 hc        1 MOL      0.078192
     92 H41        -3.8870   -7.0250    0.8070 hc        1 MOL      0.078192
     93 N9         -0.6020   -3.7980    1.7730 n         1 MOL     -0.614184
     94 C29         0.5830   -3.0000    1.8470 c3        1 MOL      0.268439
     95 C30         1.6950   -3.5980    0.9470 c         1 MOL      0.471781
     96 O16         2.0880   -4.7520    1.0670 o         1 MOL     -0.561026
     97 C31         1.1020   -3.0340    3.2940 c3        1 MOL      0.373740
     98 C32         0.1130   -2.8780    4.4210 c3        1 MOL      0.105332
     99 C33         2.2040   -1.9870    3.4200 c3        1 MOL     -0.567278
    100 C34         0.5020   -3.0300    5.8440 c3        1 MOL     -0.116899
    101 H42        -0.4830   -4.7810    2.0040 hn        1 MOL      0.300180
    102 H43         0.3830   -1.9870    1.5170 h1        1 MOL      0.033440
    103 H44         1.5210   -4.0350    3.3190 hc        1 MOL     -0.107511
    104 H45        -0.6760   -3.6200    4.3320 hc        1 MOL     -0.040505
    105 H46        -0.3030   -1.9000    4.1750 hc        1 MOL     -0.040505
    106 H47         2.7130   -1.9130    4.3790 hc        1 MOL      0.096410
    107 H48         2.9520   -2.0850    2.6380 hc        1 MOL      0.096410
    108 H49         1.7950   -0.9950    3.2670 hc        1 MOL      0.096410
    109 H50         1.4970   -2.5820    5.9330 hc        1 MOL      0.022167
    110 H51        -0.1010   -2.4420    6.5350 hc        1 MOL      0.022167
    111 H52         0.5310   -4.0590    6.2050 hc        1 MOL      0.022167
    112 N10         2.3140   -2.7890    0.1160 n         1 MOL     -0.150331
    113 C35         3.6010   -2.9460   -0.6070 c3        1 MOL      0.045460
    114 C36         4.8970   -2.6650    0.1490 c         1 MOL      0.424194
    115 O17         4.8970   -2.1970    1.3000 o         1 MOL     -0.377673
    116 C37         3.6490   -2.2120   -1.9970 c3        1 MOL      0.166101
    117 C38         2.3720   -2.3740   -2.7430 c3        1 MOL     -0.300937
    118 O18         4.0330   -0.8820   -1.8140 oh        1 MOL     -0.440310
    119 H53         1.8700   -1.8920   -0.0440 hn        1 MOL      0.079291
    120 H54         3.5550   -3.9770   -0.9420 h1        1 MOL      0.042757
    121 H55         4.4190   -2.7320   -2.5760 h1        1 MOL      0.008193
    122 H56         3.5680   -0.4590   -2.5380 ho        1 MOL      0.374439
    123 H57         2.4790   -1.9680   -3.7490 hc        1 MOL      0.095914
    124 H58         2.0560   -3.4140   -2.8030 hc        1 MOL      0.095914
    125 H59         1.4850   -1.9320   -2.2870 hc        1 MOL      0.095914
    126 N11         6.0450   -2.9000   -0.4370 n         1 MOL     -0.413810
    127 C39         7.3650   -2.4300    0.1410 c3        1 MOL     -0.041334
    128 C40         7.6650   -0.9250    0.1450 c         1 MOL      0.343859
    129 O19         8.2790   -0.4180    1.0700 o         1 MOL     -0.465991
    130 C41         8.5730   -3.1260   -0.5860 c3        1 MOL      0.408402
    131 C42         8.8290   -4.5620   -0.2710 c3        1 MOL     -0.498912
    132 O20         8.3630   -3.0320   -1.9550 oh        1 MOL     -0.585615
    133 H60         6.1020   -3.3060   -1.3550 hn        1 MOL      0.285969
    134 H61         7.4640   -2.7270    1.1880 h1        1 MOL      0.108440
    135 H62         9.3830   -2.4670   -0.3000 h1        1 MOL     -0.005502
    136 H63         8.8740   -2.2790   -2.2800 ho        1 MOL      0.349175
    137 H64         8.0610   -5.2590   -0.6160 hc        1 MOL      0.144193
    138 H65         9.7040   -4.7860   -0.8750 hc        1 MOL      0.144193
    139 H66         9.0670   -4.6130    0.7910 hc        1 MOL      0.144193
    140 N12         7.1630   -0.2360   -0.9000 n         1 MOL     -0.142069
    141 C43         7.0940    1.2630   -1.0650 c3        1 MOL     -0.384738
    142 C44         6.1380    1.8950   -0.0590 c         1 MOL      0.583592
    143 O21         6.4730    2.9840    0.4690 o         1 MOL     -0.526936
    144 C45         6.8240    1.5350   -2.5690 c3        1 MOL      0.054954
    145 C46         7.2040    2.9640   -2.9660 c3        1 MOL     -0.125908
    146 C47         7.1540    3.3570   -4.4520 c3        1 MOL      0.019596
    147 C48         7.9630    2.4370   -5.4270 c3        1 MOL     -0.112044
    148 N13         9.3800    2.2460   -4.9740 n4        1 MOL     -0.266331
    149 H67         6.6640   -0.7950   -1.5700 hn        1 MOL      0.123314
    150 H68         8.0710    1.6650   -0.7550 h1        1 MOL      0.177026
    151 H69         5.7860    1.3260   -2.8520 hc        1 MOL      0.023697
    152 H70         7.4220    0.8410   -3.1650 hc        1 MOL      0.023697
    153 H71         8.2080    3.2380   -2.6430 hc        1 MOL      0.060977
    154 H72         6.4550    3.5150   -2.4030 hc        1 MOL      0.060977
    155 H73         7.6030    4.3330   -4.5700 hc        1 MOL      0.069528
    156 H74         6.1660    3.4620   -4.9130 hc        1 MOL      0.069528
    157 H75         7.9330    2.7920   -6.4550 hx        1 MOL      0.119828
    158 H76         7.6370    1.4080   -5.2980 hx        1 MOL      0.119828
    159 H77         9.4780    1.8620   -4.0470 hn        1 MOL      0.293716
    160 H78         9.8090    1.5710   -5.5910 hn        1 MOL      0.293716
    161 H79         9.8920    3.1160   -4.9350 hn        1 MOL      0.293716
    162 N14         4.9820    1.2730    0.2610 n         1 MOL     -0.104887
    163 C49         4.0500    1.6550    1.3420 c3        1 MOL     -0.083886
    164 C50         4.7380    1.6950    2.7330 c         1 MOL      0.491847
    165 O22         4.7740    2.7440    3.3630 o         1 MOL     -0.524561
    166 C51         2.7730    0.8970    1.2960 c3        1 MOL     -0.028933
    167 C52         1.8960    1.6690    0.3170 c3        1 MOL     -0.041345
    168 C53         0.6670    0.8990   -0.1070 c         1 MOL      0.648891
    169 O23         0.5740   -0.3730   -0.1150 o         1 MOL     -0.697588
    170 O24        -0.3220    1.5820   -0.5100 o         1 MOL     -0.697588
    171 H80         4.7750    0.4110   -0.2220 hn        1 MOL      0.055102
    172 H81         3.8670    2.7160    1.1760 h1        1 MOL      0.045284
    173 H82         2.3440    0.9090    2.2950 hc        1 MOL      0.070150
    174 H83         2.9400   -0.0920    0.8700 hc        1 MOL      0.070150
    175 H84         2.4610    2.0050   -0.5410 hc        1 MOL      0.013915
    176 H85         1.3960    2.5090    0.8040 hc        1 MOL      0.013915
    177 N15         5.4450    0.5860    3.0540 n         1 MOL     -0.221883
    178 C54         6.3570    0.5360    4.2080 c3        1 MOL     -0.174458
    179 H86         6.1550    1.3800    4.8670 h1        1 MOL      0.087951
    180 H87         6.2020   -0.3950    4.7540 h1        1 MOL      0.087951
    181 H88         7.3880    0.5860    3.8600 h1        1 MOL      0.087951
    182 H89         5.4260   -0.0990    2.3160 hn        1 MOL      0.190427
    183 Ca1        -1.7760   -0.6020   -1.3910 Ca        1 MOL      1.705135
    184 O25        -1.1430   -2.9940   -2.5590 oh        1 MOL     -0.849467
    185 H90        -1.9360   -3.0020   -3.0850 ho        1 MOL      0.390977
    186 H91        -0.5170   -3.5140   -3.0640 ho        1 MOL      0.390977
    187 O26        -0.0700    0.1170   -3.4900 oh        1 MOL     -0.849467
    188 H92        -0.6780    0.8160   -3.7280 ho        1 MOL      0.390977
    189 H93         0.0390   -0.3920   -4.2930 ho        1 MOL      0.390977
@<TRIPOS>BOND
     1    1    2 1   
     2    1    4 1   
     3    1    5 1   
     4    1    6 1   
     5    2    3 2   
     6    2    7 1   
     7    7    8 1   
     8    7   15 1   
     9    8    9 1   
    10    8   11 1   
    11    8   16 1   
    12    9   10 2   
    13    9   19 1   
    14   11   12 1   
    15   11   17 1   
    16   11   18 1   
    17   12   13 1   
    18   12   14 1   
    19   19   20 1   
    20   19   28 1   
    21   20   21 1   
    22   20   23 1   
    23   20   29 1   
    24   21   22 2   
    25   21   41 1   
    26   23   24 1   
    27   23   30 1   
    28   23   31 1   
    29   24   25 1   
    30   24   32 1   
    31   24   33 1   
    32   25   26 1   
    33   25   34 1   
    34   25   35 1   
    35   26   27 1   
    36   26   36 1   
    37   26   37 1   
    38   27   38 1   
    39   27   39 1   
    40   27   40 1   
    41   41   42 1   
    42   41   49 1   
    43   42   43 1   
    44   42   45 1   
    45   42   50 1   
    46   43   44 2   
    47   43   53 1   
    48   45   46 1   
    49   45   51 1   
    50   45   52 1   
    51   46   47 1   
    52   46   48 1   
    53   53   54 1   
    54   53   57 1   
    55   54   55 1   
    56   54   58 1   
    57   54   59 1   
    58   55   56 2   
    59   55   60 1   
    60   60   61 1   
    61   60   68 1   
    62   61   62 1   
    63   61   64 1   
    64   61   69 1   
    65   62   63 2   
    66   62   72 1   
    67   64   65 1   
    68   64   70 1   
    69   64   71 1   
    70   65   66 1   
    71   65   67 1   
    72   72   73 1   
    73   72   76 1   
    74   73   74 1   
    75   73   77 1   
    76   73   78 1   
    77   74   75 2   
    78   74   79 1   
    79   79   80 1   
    80   79   86 1   
    81   80   81 1   
    82   80   83 1   
    83   80   87 1   
    84   81   82 2   
    85   81   93 1   
    86   83   84 1   
    87   83   85 1   
    88   83   88 1   
    89   84   90 1   
    90   84   91 1   
    91   84   92 1   
    92   85   89 1   
    93   93   94 1   
    94   93  101 1   
    95   94   95 1   
    96   94   97 1   
    97   94  102 1   
    98   95   96 2   
    99   95  112 1   
   100   97   98 1   
   101   97   99 1   
   102   97  103 1   
   103   98  100 1   
   104   98  104 1   
   105   98  105 1   
   106   99  106 1   
   107   99  107 1   
   108   99  108 1   
   109  100  109 1   
   110  100  110 1   
   111  100  111 1   
   112  112  113 1   
   113  112  119 1   
   114  113  114 1   
   115  113  116 1   
   116  113  120 1   
   117  114  115 2   
   118  114  126 1   
   119  116  117 1   
   120  116  118 1   
   121  116  121 1   
   122  117  123 1   
   123  117  124 1   
   124  117  125 1   
   125  118  122 1   
   126  126  127 1   
   127  126  133 1   
   128  127  128 1   
   129  127  130 1   
   130  127  134 1   
   131  128  129 2   
   132  128  140 1   
   133  130  131 1   
   134  130  132 1   
   135  130  135 1   
   136  131  137 1   
   137  131  138 1   
   138  131  139 1   
   139  132  136 1   
   140  140  141 1   
   141  140  149 1   
   142  141  142 1   
   143  141  144 1   
   144  141  150 1   
   145  142  143 2   
   146  142  162 1   
   147  144  145 1   
   148  144  151 1   
   149  144  152 1   
   150  145  146 1   
   151  145  153 1   
   152  145  154 1   
   153  146  147 1   
   154  146  155 1   
   155  146  156 1   
   156  147  148 1   
   157  147  157 1   
   158  147  158 1   
   159  148  159 1   
   160  148  160 1   
   161  148  161 1   
   162  162  163 1   
   163  162  171 1   
   164  163  164 1   
   165  163  166 1   
   166  163  172 1   
   167  164  165 2   
   168  164  177 1   
   169  166  167 1   
   170  166  173 1   
   171  166  174 1   
   172  167  168 1   
   173  167  175 1   
   174  167  176 1   
   175  168  169 1   
   176  168  170 1   
   177  177  178 1   
   178  177  182 1   
   179  178  179 1   
   180  178  180 1   
   181  178  181 1   
   182  184  185 1   
   183  184  186 1   
   184  187  188 1   
   185  187  189 1   
@<TRIPOS>SUBSTRUCTURE
     1 MOL         1 TEMP              0 ****  ****    0 ROOT
