@<TRIPOS>MOLECULE
MOL
  178   175     1     0     0
SMALL
resp


@<TRIPOS>ATOM
      1 C1         -0.8630    3.2440    5.7420 c3        1 MOL     -0.236218
      2 C2         -0.7750    2.6690    4.3330 c         1 MOL      0.774072
      3 O1          0.1750    3.0450    3.6090 o         1 MOL     -0.613572
      4 H1         -0.0730    3.9820    5.8820 hc        1 MOL      0.051867
      5 H2         -1.8330    3.7190    5.8810 hc        1 MOL      0.051867
      6 H3         -0.7420    2.4420    6.4700 hc        1 MOL      0.051867
      7 N1         -1.6210    1.7980    3.8310 n         1 MOL     -0.595253
      8 C3         -1.7980    1.5990    2.3540 c3        1 MOL      0.168976
      9 C4         -2.1950    2.8780    1.7170 c         1 MOL      0.324229
     10 O2         -3.1890    3.5070    2.1090 o         1 MOL     -0.502642
     11 C5         -2.8570    0.4780    2.1780 c3        1 MOL     -0.396792
     12 C6         -3.3220    0.3860    0.6840 c         1 MOL      1.026524
     13 O3         -2.6360    0.8060   -0.2290 o         1 MOL     -0.696404
     14 O4         -4.4420   -0.1480    0.4990 o         1 MOL     -0.696404
     15 H4         -2.3670    1.4790    4.4180 hn        1 MOL      0.296193
     16 H5         -0.8270    1.3820    1.9230 h1        1 MOL      0.085798
     17 H6         -3.7770    0.7830    2.6870 hc        1 MOL      0.098686
     18 H7         -2.4020   -0.4910    2.3660 hc        1 MOL      0.098686
     19 N2         -1.4970    3.3440    0.6330 n         1 MOL     -0.142491
     20 C7         -1.6760    4.6870    0.0950 c3        1 MOL      0.254259
     21 C8         -2.7660    4.8060   -0.9060 c         1 MOL      0.397926
     22 O5         -3.1360    5.8640   -1.3060 o         1 MOL     -0.584340
     23 C9         -0.3000    5.2390   -0.4080 c3        1 MOL     -0.270238
     24 H8         -0.8180    2.8150    0.0980 hn        1 MOL      0.041086
     25 H9         -2.0100    5.3130    0.9260 h1        1 MOL      0.009650
     26 H10        -0.0180    4.9060   -1.4030 hc        1 MOL      0.078606
     27 H11        -0.4120    6.3190   -0.4840 hc        1 MOL      0.078606
     28 H12         0.4010    5.1630    0.4220 hc        1 MOL      0.078606
     29 N3         -3.3250    3.6800   -1.3350 n         1 MOL     -0.009850
     30 C10        -4.6090    3.4510   -1.9920 c3        1 MOL     -0.090927
     31 C11        -5.8320    3.2120   -1.1160 c         1 MOL      0.325475
     32 O6         -6.9570    3.0370   -1.5750 o         1 MOL     -0.506673
     33 C12        -4.4790    2.3230   -3.0460 c3        1 MOL     -0.048611
     34 C13        -3.1110    2.2730   -3.7760 c         1 MOL      0.599187
     35 O7         -2.5410    1.1700   -3.8670 o         1 MOL     -0.666303
     36 O8         -2.6620    3.3470   -4.1990 o         1 MOL     -0.666303
     37 H13        -2.8880    2.8140   -1.0250 hn        1 MOL      0.143951
     38 H14        -4.8260    4.2760   -2.6740 h1        1 MOL      0.106796
     39 H15        -5.1860    2.5390   -3.8540 hc        1 MOL     -0.007107
     40 H16        -4.7390    1.3980   -2.5380 hc        1 MOL     -0.007107
     41 N4         -5.6220    3.3000    0.1970 n         1 MOL     -0.055894
     42 C14        -6.5330    3.0460    1.3370 c3        1 MOL     -0.026536
     43 C15        -7.4390    1.8970    1.1840 c         1 MOL      0.407458
     44 O9         -8.6290    2.0000    1.5990 o         1 MOL     -0.574647
     45 H17        -4.6900    3.5810    0.4800 hn        1 MOL      0.029036
     46 H18        -7.1960    3.8950    1.4920 h1        1 MOL      0.055948
     47 H19        -5.9390    2.9480    2.2430 h1        1 MOL      0.055948
     48 N5         -7.0440    0.8490    0.4870 n         1 MOL     -0.165666
     49 C16        -7.8680   -0.3100    0.0650 c3        1 MOL      0.073962
     50 C17        -7.6970   -1.6710    0.8460 c         1 MOL      0.304957
     51 O10        -8.6630   -2.3930    1.0940 o         1 MOL     -0.520267
     52 C18        -7.5430   -0.4800   -1.4370 c3        1 MOL     -0.152722
     53 C19        -7.8440   -1.8810   -1.9880 c         1 MOL      0.724297
     54 N6         -8.8150   -1.9040   -2.7740 n         1 MOL     -0.791650
     55 O11        -7.2150   -2.8490   -1.7410 o         1 MOL     -0.602152
     56 H20        -6.0580    0.7690    0.2790 hn        1 MOL      0.124665
     57 H21        -8.9220   -0.0590    0.1910 h1        1 MOL      0.078247
     58 H22        -6.4620   -0.3730   -1.5530 hc        1 MOL      0.035258
     59 H23        -7.9230    0.3340   -2.0550 hc        1 MOL      0.035258
     60 H24        -9.3690   -1.0550   -2.8900 hn        1 MOL      0.357490
     61 H25        -9.0250   -2.7980   -3.1970 hn        1 MOL      0.357490
     62 N7         -6.4750   -1.9810    1.3200 n         1 MOL     -0.012835
     63 C20        -6.2460   -3.0590    2.3240 c3        1 MOL     -0.111908
     64 C21        -4.9140   -3.7560    2.1090 c         1 MOL      0.584158
     65 O12        -4.7010   -4.7690    2.7340 o         1 MOL     -0.581798
     66 H26        -5.7940   -1.2560    1.1710 hn        1 MOL      0.042695
     67 H27        -7.0530   -3.7900    2.2240 h1        1 MOL      0.081528
     68 H28        -6.2740   -2.5500    3.2870 h1        1 MOL      0.081528
     69 N8         -4.0670   -3.2880    1.1730 n         1 MOL     -0.348484
     70 C22        -2.7880   -3.9880    0.8080 c3        1 MOL      0.056994
     71 C23        -1.5450   -3.0290    0.7170 c         1 MOL      0.328896
     72 O13        -1.5640   -1.9910    0.0040 o         1 MOL     -0.596044
     73 C24        -3.0180   -4.7550   -0.4910 c3        1 MOL      0.190671
     74 C25        -1.9290   -5.8290   -0.6890 c3        1 MOL     -0.222326
     75 O14        -4.1930   -5.5360   -0.4340 oh        1 MOL     -0.546054
     76 H29        -4.3220   -2.3700    0.8310 hn        1 MOL      0.122190
     77 H30        -2.4250   -4.6990    1.5480 h1        1 MOL      0.076991
     78 H31        -2.8970   -4.0320   -1.2900 h1        1 MOL      0.057810
     79 H32        -4.8670   -4.9430   -0.1060 ho        1 MOL      0.367290
     80 H33        -0.9670   -5.3150   -0.6310 hc        1 MOL      0.062222
     81 H34        -1.9920   -6.5970    0.0820 hc        1 MOL      0.062222
     82 H35        -1.8830   -6.3030   -1.6640 hc        1 MOL      0.062222
     83 N9         -0.4940   -3.3290    1.4860 n         1 MOL     -0.333339
     84 C26         0.6580   -2.4830    1.6440 c3        1 MOL      0.032135
     85 C27         1.7550   -2.9710    0.7490 c         1 MOL      0.534387
     86 O15         2.1830   -4.0860    0.8270 o         1 MOL     -0.602399
     87 C28         1.1130   -2.4160    3.0720 c3        1 MOL      0.242468
     88 C29        -0.0600   -2.2010    4.0910 c3        1 MOL      0.118118
     89 C30         2.1740   -1.2060    3.1520 c3        1 MOL     -0.452974
     90 C31         0.4920   -1.8180    5.4710 c3        1 MOL     -0.185757
     91 H36        -0.4970   -4.1950    2.0080 hn        1 MOL      0.261182
     92 H37         0.4790   -1.4450    1.3490 h1        1 MOL      0.099621
     93 H38         1.5980   -3.3630    3.2610 hc        1 MOL     -0.047275
     94 H39        -0.4580   -3.2070    4.2400 hc        1 MOL     -0.035805
     95 H40        -0.7610   -1.4820    3.6770 hc        1 MOL     -0.035805
     96 H41         2.6790   -1.2720    4.1110 hc        1 MOL      0.090824
     97 H42         3.0360   -1.1960    2.4850 hc        1 MOL      0.090824
     98 H43         1.6170   -0.2720    3.0600 hc        1 MOL      0.090824
     99 H44         1.3550   -2.4210    5.7350 hc        1 MOL      0.034973
    100 H45         0.8490   -0.7900    5.4910 hc        1 MOL      0.034973
    101 H46        -0.2830   -1.9190    6.2380 hc        1 MOL      0.034973
    102 N10         2.2080   -2.1040   -0.1870 n         1 MOL     -0.037330
    103 C32         3.4120   -2.3620   -1.0350 c3        1 MOL     -0.057551
    104 C33         4.6960   -1.8280   -0.3660 c         1 MOL      0.482500
    105 O16         4.5580   -1.0450    0.6000 o         1 MOL     -0.451442
    106 C34         3.3430   -1.6010   -2.4110 c3        1 MOL     -0.243472
    107 C35         2.0730   -1.9650   -3.1800 c         1 MOL      0.703606
    108 O17         1.1240   -1.0700   -3.1930 o         1 MOL     -0.692524
    109 O18         2.1390   -3.0720   -3.7230 o         1 MOL     -0.692524
    110 H47         1.8850   -1.1430   -0.2030 hn        1 MOL      0.117410
    111 H48         3.6050   -3.4140   -1.1880 h1        1 MOL      0.077342
    112 H49         4.2370   -1.7710   -3.0180 hc        1 MOL      0.092190
    113 H50         3.2640   -0.5420   -2.1890 hc        1 MOL      0.092190
    114 N11         5.8990   -2.0290   -0.9490 n         1 MOL     -0.720533
    115 C36         7.1250   -1.5260   -0.4070 c3        1 MOL      0.617638
    116 C37         7.2440    0.0430   -0.4850 c         1 MOL      0.305844
    117 O19         7.5390    0.5120    0.5580 o         1 MOL     -0.465831
    118 C38         8.3300   -2.3350   -0.8580 c3        1 MOL     -0.293798
    119 C39         9.6750   -1.9680   -0.1840 ca        1 MOL      0.107255
    120 C40         9.8350   -1.7280    1.2340 ca        1 MOL     -0.213886
    121 C41        10.7300   -1.5080   -1.0570 ca        1 MOL     -0.213886
    122 C42        10.9510   -1.1380    1.7500 ca        1 MOL     -0.018841
    123 C43        11.8140   -0.9040   -0.5020 ca        1 MOL     -0.018841
    124 C44        11.9210   -0.7390    0.8780 ca        1 MOL     -0.206519
    125 H51         5.9290   -2.7320   -1.6710 hn        1 MOL      0.319354
    126 H52         6.9960   -1.7530    0.6450 h1        1 MOL      0.001314
    127 H53         8.4100   -1.9730   -1.8890 hc        1 MOL      0.078207
    128 H54         8.2690   -3.4170   -0.8110 hc        1 MOL      0.078207
    129 H55         9.0070   -2.0160    1.8660 ha        1 MOL      0.120250
    130 H56        10.6870   -1.6980   -2.1210 ha        1 MOL      0.120250
    131 H57        11.0160   -0.9930    2.8220 ha        1 MOL      0.090415
    132 H58        12.6500   -0.5410   -1.0850 ha        1 MOL      0.090415
    133 H59        12.7390   -0.2430    1.3830 ha        1 MOL      0.116039
    134 N12         6.8820    0.7740   -1.5890 n         1 MOL     -0.083454
    135 C45         6.9690    2.2590   -1.6550 c3        1 MOL      0.026069
    136 C46         5.9830    2.8340   -0.6790 c         1 MOL      0.235306
    137 O20         6.0550    3.9990   -0.3650 o         1 MOL     -0.498237
    138 C47         6.6010    2.7640   -3.0570 c3        1 MOL     -0.143327
    139 C48         6.9430    1.5200   -3.8190 c3        1 MOL      0.085022
    140 C49         6.6490    0.3150   -2.8930 c3        1 MOL     -0.105777
    141 H60         7.9760    2.6370   -1.4540 h1        1 MOL      0.084392
    142 H61         5.5260    2.8460   -3.1750 hc        1 MOL      0.091544
    143 H62         7.1330    3.6260   -3.4670 hc        1 MOL      0.091544
    144 H63         6.3550    1.5060   -4.7330 hc        1 MOL     -0.000597
    145 H64         7.9650    1.5080   -4.1890 hc        1 MOL     -0.000597
    146 H65         5.6190   -0.0190   -3.0060 h1        1 MOL      0.025684
    147 H66         7.3500   -0.4800   -3.1240 h1        1 MOL      0.025684
    148 N13         5.0430    2.0790   -0.0690 n         1 MOL     -0.085796
    149 C50         4.0630    2.5200    0.8990 c3        1 MOL     -0.064227
    150 C51         4.5780    2.3400    2.3880 c         1 MOL      0.405727
    151 O21         4.1790    3.0910    3.2940 o         1 MOL     -0.529994
    152 C52         2.7380    1.7170    0.5860 c3        1 MOL     -0.151976
    153 C53         2.0550    2.2480   -0.6230 c3        1 MOL      0.020266
    154 C54         0.7860    1.5060   -0.9100 c         1 MOL      0.697966
    155 O22         0.4590    0.4520   -0.3540 o         1 MOL     -0.771401
    156 O23         0.1520    1.8210   -1.9560 o         1 MOL     -0.771401
    157 H67         5.0030    1.0830   -0.2130 hn        1 MOL      0.184451
    158 H68         3.9710    3.6130    0.8420 h1        1 MOL      0.098930
    159 H69         2.1720    1.8090    1.5150 hc        1 MOL      0.105172
    160 H70         2.9360    0.6740    0.3250 hc        1 MOL      0.105172
    161 H71         2.7300    2.1320   -1.4720 hc        1 MOL      0.013187
    162 H72         1.7580    3.2890   -0.5300 hc        1 MOL      0.013187
    163 N14         5.4420    1.3290    2.6000 n         1 MOL     -0.033029
    164 C55         6.1950    1.1110    3.7760 c3        1 MOL     -0.287239
    165 H73         6.3550    2.0610    4.2860 h1        1 MOL      0.097453
    166 H74         5.6530    0.4320    4.4340 h1        1 MOL      0.097453
    167 H75         7.1580    0.6730    3.5150 h1        1 MOL      0.097453
    168 H76         5.6700    0.7180    1.8190 hn        1 MOL      0.096649
    169 Ca1        -1.1420   -0.3760   -2.0880 Ca        1 MOL      1.790850
    170 O24        -3.5740   -1.5160   -1.8620 oh        1 MOL     -0.843380
    171 H77        -4.0060   -1.1520   -1.0830 ho        1 MOL      0.399751
    172 H78        -4.3010   -1.8390   -2.4050 ho        1 MOL      0.399751
    173 O25        -1.5200   -1.6500   -4.4270 oh        1 MOL     -0.843380
    174 H79        -1.3250   -1.5130   -5.3580 ho        1 MOL      0.399751
    175 H80        -1.8130   -2.5630   -4.3710 ho        1 MOL      0.399751
    176 O26        -0.3360   -3.2440   -2.1860 oh        1 MOL     -0.843380
    177 H81        -1.0340   -3.7510   -2.6150 ho        1 MOL      0.399751
    178 H82         0.4680   -3.5390   -2.6140 ho        1 MOL      0.399751
@<TRIPOS>BOND
     1    1    2 1   
     2    1    4 1   
     3    1    5 1   
     4    1    6 1   
     5    2    3 2   
     6    2    7 1   
     7    7    8 1   
     8    7   15 1   
     9    8    9 1   
    10    8   11 1   
    11    8   16 1   
    12    9   10 2   
    13    9   19 1   
    14   11   12 1   
    15   11   17 1   
    16   11   18 1   
    17   12   13 1   
    18   12   14 1   
    19   19   20 1   
    20   19   24 1   
    21   20   21 1   
    22   20   23 1   
    23   20   25 1   
    24   21   22 2   
    25   21   29 1   
    26   23   26 1   
    27   23   27 1   
    28   23   28 1   
    29   29   30 1   
    30   29   37 1   
    31   30   31 1   
    32   30   33 1   
    33   30   38 1   
    34   31   32 2   
    35   31   41 1   
    36   33   34 1   
    37   33   39 1   
    38   33   40 1   
    39   34   35 1   
    40   34   36 1   
    41   41   42 1   
    42   41   45 1   
    43   42   43 1   
    44   42   46 1   
    45   42   47 1   
    46   43   44 2   
    47   43   48 1   
    48   48   49 1   
    49   48   56 1   
    50   49   50 1   
    51   49   52 1   
    52   49   57 1   
    53   50   51 2   
    54   50   62 1   
    55   52   53 1   
    56   52   58 1   
    57   52   59 1   
    58   53   54 1   
    59   53   55 2   
    60   54   60 1   
    61   54   61 1   
    62   62   63 1   
    63   62   66 1   
    64   63   64 1   
    65   63   67 1   
    66   63   68 1   
    67   64   65 2   
    68   64   69 1   
    69   69   70 1   
    70   69   76 1   
    71   70   71 1   
    72   70   73 1   
    73   70   77 1   
    74   71   72 2   
    75   71   83 1   
    76   73   74 1   
    77   73   75 1   
    78   73   78 1   
    79   74   80 1   
    80   74   81 1   
    81   74   82 1   
    82   75   79 1   
    83   83   84 1   
    84   83   91 1   
    85   84   85 1   
    86   84   87 1   
    87   84   92 1   
    88   85   86 2   
    89   85  102 1   
    90   87   88 1   
    91   87   89 1   
    92   87   93 1   
    93   88   90 1   
    94   88   94 1   
    95   88   95 1   
    96   89   96 1   
    97   89   97 1   
    98   89   98 1   
    99   90   99 1   
   100   90  100 1   
   101   90  101 1   
   102  102  103 1   
   103  102  110 1   
   104  103  104 1   
   105  103  106 1   
   106  103  111 1   
   107  104  105 2   
   108  104  114 1   
   109  106  107 1   
   110  106  112 1   
   111  106  113 1   
   112  107  108 1   
   113  107  109 1   
   114  114  115 1   
   115  114  125 1   
   116  115  116 1   
   117  115  118 1   
   118  115  126 1   
   119  116  117 2   
   120  116  134 1   
   121  118  119 1   
   122  118  127 1   
   123  118  128 1   
   124  119  120 ar  
   125  119  121 ar  
   126  120  122 ar  
   127  120  129 1   
   128  121  123 ar  
   129  121  130 1   
   130  122  124 ar  
   131  122  131 1   
   132  123  124 ar  
   133  123  132 1   
   134  124  133 1   
   135  134  135 1   
   136  134  140 1   
   137  135  136 1   
   138  135  138 1   
   139  135  141 1   
   140  136  137 2   
   141  136  148 1   
   142  138  139 1   
   143  138  142 1   
   144  138  143 1   
   145  139  140 1   
   146  139  144 1   
   147  139  145 1   
   148  140  146 1   
   149  140  147 1   
   150  148  149 1   
   151  148  157 1   
   152  149  150 1   
   153  149  152 1   
   154  149  158 1   
   155  150  151 2   
   156  150  163 1   
   157  152  153 1   
   158  152  159 1   
   159  152  160 1   
   160  153  154 1   
   161  153  161 1   
   162  153  162 1   
   163  154  155 1   
   164  154  156 1   
   165  163  164 1   
   166  163  168 1   
   167  164  165 1   
   168  164  166 1   
   169  164  167 1   
   170  170  171 1   
   171  170  172 1   
   172  173  174 1   
   173  173  175 1   
   174  176  177 1   
   175  176  178 1   
@<TRIPOS>SUBSTRUCTURE
     1 MOL         1 TEMP              0 ****  ****    0 ROOT
