@<TRIPOS>MOLECULE
MOL
  179   176     1     0     0
SMALL
resp


@<TRIPOS>ATOM
      1 C1          2.2870    2.2080    5.5770 c3        1 MOL     -0.303617
      2 C2          1.5900    2.1030    4.1960 c         1 MOL      0.788595
      3 O1          2.3550    2.0380    3.2480 o         1 MOL     -0.630729
      4 H1          3.3390    2.4540    5.4350 hc        1 MOL      0.069981
      5 H2          1.8080    2.9900    6.1680 hc        1 MOL      0.069981
      6 H3          2.2040    1.2550    6.1000 hc        1 MOL      0.069981
      7 N1          0.3020    2.2460    4.1170 n         1 MOL     -0.589321
      8 C3         -0.3640    2.2090    2.8770 c3        1 MOL     -0.032592
      9 C4         -0.1810    3.4830    2.1380 c         1 MOL      0.590578
     10 O2         -0.8860    4.4930    2.4210 o         1 MOL     -0.547147
     11 C5         -1.8330    1.8590    3.1140 c3        1 MOL     -0.131036
     12 C6         -2.7510    1.5850    1.9110 c         1 MOL      0.579550
     13 O3         -3.9310    1.2850    2.0060 o         1 MOL     -0.636193
     14 O4         -2.2820    1.7820    0.7540 o         1 MOL     -0.636193
     15 H4         -0.3200    2.3540    4.9080 hn        1 MOL      0.336758
     16 H5         -0.0210    1.2810    2.4180 h1        1 MOL     -0.014896
     17 H6         -2.3200    2.6390    3.7070 hc        1 MOL      0.061290
     18 H7         -2.0270    1.0910    3.8620 hc        1 MOL      0.061290
     19 N2          0.7140    3.5310    1.1740 n         1 MOL     -0.210093
     20 C7          1.2050    4.7980    0.6200 c3        1 MOL     -0.316503
     21 C8          0.1220    5.6170   -0.0360 c         1 MOL      0.602015
     22 O5          0.0640    6.8260    0.0220 o         1 MOL     -0.576108
     23 C9          2.3300    4.3800   -0.2810 c3        1 MOL      0.051614
     24 C10         3.0200    5.5550   -0.9450 c3        1 MOL     -0.033631
     25 C11         4.3610    5.1030   -1.5910 c3        1 MOL      0.005975
     26 C12         5.0100    6.4010   -2.2460 c3        1 MOL      0.025416
     27 N3          6.3220    6.0920   -2.7920 n4        1 MOL     -0.343219
     28 H8          1.0350    2.6520    0.8080 hn        1 MOL      0.321847
     29 H9          1.5660    5.5030    1.3810 h1        1 MOL      0.152870
     30 H10         1.9800    3.7340   -1.0850 hc        1 MOL      0.070966
     31 H11         3.0640    3.8280    0.2990 hc        1 MOL      0.070966
     32 H12         3.1360    6.3590   -0.2170 hc        1 MOL      0.010961
     33 H13         2.3660    5.9290   -1.7380 hc        1 MOL      0.010961
     34 H14         4.1610    4.3490   -2.3530 hc        1 MOL      0.023630
     35 H15         4.9650    4.6380   -0.8190 hc        1 MOL      0.023630
     36 H16         5.0840    7.1850   -1.4960 hx        1 MOL      0.092218
     37 H17         4.2900    6.8020   -2.9640 hx        1 MOL      0.092218
     38 H18         6.7710    6.8670   -3.2630 hn        1 MOL      0.323184
     39 H19         6.9920    5.7630   -2.1180 hn        1 MOL      0.323184
     40 H20         6.2800    5.3540   -3.4780 hn        1 MOL      0.323184
     41 N4         -0.8770    4.9470   -0.6250 n         1 MOL     -0.157646
     42 C13        -1.9140    5.4810   -1.5510 c3        1 MOL      0.136905
     43 C14        -3.4250    5.2710   -1.0520 c         1 MOL      0.317412
     44 O6         -4.3810    5.8770   -1.6220 o         1 MOL     -0.529285
     45 C15        -1.8660    4.7660   -2.8720 c3        1 MOL     -0.423752
     46 C16        -1.9400    3.2270   -2.6220 c         1 MOL      0.880760
     47 O7         -2.9930    2.5460   -2.5120 o         1 MOL     -0.749574
     48 O8         -0.8920    2.5450   -2.5360 o         1 MOL     -0.749574
     49 H21        -0.8390    3.9420   -0.5400 hn        1 MOL     -0.090979
     50 H22        -1.7390    6.5610   -1.5100 h1        1 MOL      0.085380
     51 H23        -0.9380    5.0550   -3.3620 hc        1 MOL      0.106189
     52 H24        -2.5690    5.1730   -3.6060 hc        1 MOL      0.106189
     53 N5         -3.6560    4.3740   -0.0890 n         1 MOL     -0.127139
     54 C17        -4.9110    4.2020    0.6980 c3        1 MOL     -0.031662
     55 C18        -5.8360    3.0840    0.1790 c         1 MOL      0.528394
     56 O9         -6.9740    3.0310    0.6730 o         1 MOL     -0.578285
     57 H25        -2.8640    3.9280    0.3520 hn        1 MOL      0.156077
     58 H26        -5.5410    5.0850    0.7110 h1        1 MOL      0.078519
     59 H27        -4.6750    4.1320    1.7650 h1        1 MOL      0.078519
     60 N6         -5.4430    2.1720   -0.7990 n         1 MOL     -0.292535
     61 C19        -6.3520    1.2050   -1.2850 c3        1 MOL     -0.033779
     62 C20        -6.8010    0.0080   -0.4260 c         1 MOL      0.409373
     63 O10        -7.5300   -0.8380   -0.9200 o         1 MOL     -0.542226
     64 C21        -5.7170    0.7300   -2.6120 c3        1 MOL     -0.363843
     65 C22        -4.6330   -0.2890   -2.4910 c         1 MOL      0.718671
     66 N7         -4.4280   -1.0750   -3.5090 n         1 MOL     -0.785882
     67 O11        -3.8360   -0.3820   -1.4780 o         1 MOL     -0.563638
     68 H28        -4.4710    2.2080   -1.0950 hn        1 MOL      0.238237
     69 H29        -7.2660    1.7040   -1.6110 h1        1 MOL      0.121856
     70 H30        -5.2390    1.6120   -3.0450 hc        1 MOL      0.136276
     71 H31        -6.4890    0.2210   -3.1910 hc        1 MOL      0.136276
     72 H32        -4.7760   -0.7580   -4.4120 hn        1 MOL      0.350068
     73 H33        -3.8100   -1.8700   -3.4610 hn        1 MOL      0.350068
     74 N8         -6.3360   -0.0200    0.8120 n         1 MOL     -0.116161
     75 C23        -6.6630   -1.0580    1.7870 c3        1 MOL     -0.325168
     76 C24        -5.5530   -2.1360    1.8650 c         1 MOL      0.662949
     77 O12        -5.7070   -3.0040    2.6480 o         1 MOL     -0.589674
     78 H34        -5.7960    0.7930    1.0810 hn        1 MOL      0.272387
     79 H35        -7.6270   -1.5600    1.6680 h1        1 MOL      0.140509
     80 H36        -6.5790   -0.5890    2.7710 h1        1 MOL      0.140509
     81 N9         -4.4590   -1.9230    1.1830 n         1 MOL     -0.228041
     82 C25        -3.3290   -2.8700    1.3240 c3        1 MOL      0.411066
     83 C26        -1.9280   -2.1910    1.1880 c         1 MOL      0.097265
     84 O13        -1.8440   -1.0060    0.8750 o         1 MOL     -0.311602
     85 C27        -3.3800   -3.9970    0.2130 c3        1 MOL      0.099066
     86 C28        -4.6970   -4.6670   -0.1280 ca        1 MOL     -0.148693
     87 C29        -4.9570   -6.0660    0.2410 ca        1 MOL     -0.084359
     88 C30        -5.6430   -3.9450   -0.8850 ca        1 MOL     -0.084359
     89 C31        -6.1260   -6.6830   -0.2490 ca        1 MOL     -0.299845
     90 C32        -6.8140   -4.6540   -1.3790 ca        1 MOL     -0.299845
     91 C33        -7.0380   -5.9920   -1.1130 ca        1 MOL      0.415831
     92 O14        -7.9870   -6.5530   -1.7960 oh        1 MOL     -0.514126
     93 H37        -4.2880   -0.9850    0.8300 hn        1 MOL     -0.020591
     94 H38        -3.3670   -3.4540    2.2420 h1        1 MOL     -0.035488
     95 H39        -2.6270   -4.7380    0.4630 hc        1 MOL     -0.028347
     96 H40        -2.9960   -3.5480   -0.7050 hc        1 MOL     -0.028347
     97 H41        -4.1630   -6.5940    0.7510 ha        1 MOL      0.119318
     98 H42        -5.4130   -2.9040   -1.0730 ha        1 MOL      0.119318
     99 H43        -6.2590   -7.7500   -0.2080 ha        1 MOL      0.143059
    100 H44        -7.5160   -4.1420   -2.0240 ha        1 MOL      0.143059
    101 H45        -8.4830   -5.9120   -2.3110 ho        1 MOL      0.381043
    102 N10        -0.8140   -2.9140    1.5030 n         1 MOL     -0.420019
    103 C34         0.6040   -2.4520    1.5190 c3        1 MOL     -0.197880
    104 C35         1.4430   -3.5050    0.8230 c         1 MOL      0.451308
    105 O15         1.4600   -4.7040    1.1880 o         1 MOL     -0.542664
    106 C36         1.0380   -2.2710    2.9970 c3        1 MOL      0.312549
    107 C37         0.0510   -1.4970    3.8520 c3        1 MOL      0.224095
    108 C38         2.4560   -1.6530    3.0940 c3        1 MOL     -0.272278
    109 C39         0.1650   -1.7520    5.3780 c3        1 MOL     -0.502000
    110 H46        -0.9410   -3.8080    1.9610 hn        1 MOL      0.309449
    111 H47         0.7490   -1.5240    0.9630 h1        1 MOL      0.144512
    112 H48         1.0870   -3.2580    3.4680 hc        1 MOL     -0.039903
    113 H49        -0.9780   -1.7610    3.5870 hc        1 MOL     -0.003354
    114 H50         0.1030   -0.4240    3.6580 hc        1 MOL     -0.003354
    115 H51         3.0890   -2.3640    2.5640 hc        1 MOL      0.035067
    116 H52         2.4550   -0.6660    2.6400 hc        1 MOL      0.035067
    117 H53         2.8120   -1.7430    4.1110 hc        1 MOL      0.035067
    118 H54        -0.3530   -0.9060    5.8260 hc        1 MOL      0.115906
    119 H55        -0.3140   -2.6900    5.6510 hc        1 MOL      0.115906
    120 H56         1.2480   -1.7730    5.4970 hc        1 MOL      0.115906
    121 N11         2.0960   -3.0940   -0.2660 n         1 MOL     -0.075908
    122 C40         2.9640   -4.0320   -1.0290 c3        1 MOL      0.006764
    123 C41         4.4040   -3.8720   -0.5210 c         1 MOL      0.242808
    124 O16         4.8000   -2.8910    0.1060 o         1 MOL     -0.278799
    125 C42         2.8440   -3.8690   -2.5680 c3        1 MOL      0.190330
    126 O17         1.5800   -3.9160   -3.0210 oh        1 MOL     -0.661448
    127 H57         2.0030   -2.1770   -0.6850 hn        1 MOL      0.287051
    128 H58         2.6820   -5.0590   -0.7810 h1        1 MOL      0.094913
    129 H59         3.4030   -4.6440   -3.0780 h1        1 MOL      0.005629
    130 H60         3.2550   -2.9060   -2.9020 h1        1 MOL      0.005629
    131 H61         1.6030   -4.1720   -3.9440 ho        1 MOL      0.442785
    132 N12         5.3600   -4.7190   -0.9180 n         1 MOL     -0.361532
    133 C43         6.7460   -4.6810   -0.4830 c3        1 MOL      0.151383
    134 C44         7.4530   -3.3350   -0.7660 c         1 MOL      0.372988
    135 O18         8.0470   -2.7240    0.1480 o         1 MOL     -0.499985
    136 C45         7.4570   -5.7880   -1.2990 c3        1 MOL     -0.500278
    137 H62         5.0520   -5.4930   -1.5000 hn        1 MOL      0.260704
    138 H63         6.6860   -4.9270    0.5730 h1        1 MOL      0.102930
    139 H64         8.5290   -5.6530   -1.2010 hc        1 MOL      0.150276
    140 H65         7.1990   -6.7870   -0.9310 hc        1 MOL      0.150276
    141 H66         7.1630   -5.7550   -2.3490 hc        1 MOL      0.150276
    142 N13         7.2350   -2.7370   -1.9160 n         1 MOL     -0.255037
    143 C46         7.7430   -1.3960   -2.2410 c3        1 MOL      0.144066
    144 C47         7.2750   -0.2620   -1.3330 c         1 MOL      0.506006
    145 O19         8.0220    0.6550   -1.1030 o         1 MOL     -0.543135
    146 C48         7.3120   -1.1880   -3.7430 c3        1 MOL     -0.428221
    147 H67         6.7910   -3.1650   -2.7110 hn        1 MOL      0.172928
    148 H68         8.8330   -1.3370   -2.1630 h1        1 MOL      0.068569
    149 H69         7.8360   -2.0250   -4.2130 hc        1 MOL      0.119765
    150 H70         6.2270   -1.2190   -3.8940 hc        1 MOL      0.119765
    151 H71         7.7170   -0.2560   -4.1390 hc        1 MOL      0.119765
    152 N14         6.0320   -0.3310   -0.8480 n         1 MOL     -0.369819
    153 C49         5.4500    0.4860    0.2480 c3        1 MOL     -0.058780
    154 C50         6.1670    0.2560    1.6160 c         1 MOL      0.641557
    155 O20         6.6120    1.2350    2.2280 o         1 MOL     -0.574318
    156 C51         3.9790    0.2370    0.4380 c3        1 MOL      0.194017
    157 C52         3.1900    0.9120   -0.6960 c3        1 MOL     -0.356528
    158 C53         1.7220    0.4210   -0.6760 c         1 MOL      0.633099
    159 O21         1.2500   -0.2800   -1.5490 o         1 MOL     -0.732287
    160 O22         0.9540    0.8460    0.2500 o         1 MOL     -0.732287
    161 H72         5.4650   -1.0980   -1.1690 hn        1 MOL      0.196054
    162 H73         5.5970    1.5450    0.0240 h1        1 MOL      0.037652
    163 H74         3.7440    0.7700    1.3590 hc        1 MOL      0.017867
    164 H75         3.7220   -0.8220    0.4570 hc        1 MOL      0.017867
    165 H76         3.5140    0.6740   -1.7030 hc        1 MOL      0.063713
    166 H77         3.1800    1.9790   -0.4820 hc        1 MOL      0.063713
    167 N15         6.1610   -1.0060    2.0590 n         1 MOL     -0.272022
    168 C54         7.0440   -1.3110    3.2660 c3        1 MOL     -0.380207
    169 H78         8.0730   -1.0290    3.0430 h1        1 MOL      0.149410
    170 H79         6.6910   -0.7440    4.1280 h1        1 MOL      0.149410
    171 H80         7.0000   -2.3770    3.4890 h1        1 MOL      0.149410
    172 H81         5.7240   -1.7180    1.5000 hn        1 MOL      0.210067
    173 Ca1        -1.2260    0.4280   -1.1600 Ca        1 MOL      1.725630
    174 O23        -0.8680   -2.4590   -1.6700 oh        1 MOL     -0.803226
    175 H82        -0.0480   -2.7480   -2.0490 ho        1 MOL      0.390231
    176 H83        -1.5400   -2.9280   -2.1740 ho        1 MOL      0.390231
    177 O24        -1.2890   -0.4760   -3.6950 oh        1 MOL     -0.803226
    178 H84        -1.1930   -0.0800   -4.5560 ho        1 MOL      0.390231
    179 H85        -1.4710   -1.4040   -3.8730 ho        1 MOL      0.390231
@<TRIPOS>BOND
     1    1    2 1   
     2    1    4 1   
     3    1    5 1   
     4    1    6 1   
     5    2    3 2   
     6    2    7 1   
     7    7    8 1   
     8    7   15 1   
     9    8    9 1   
    10    8   11 1   
    11    8   16 1   
    12    9   10 2   
    13    9   19 1   
    14   11   12 1   
    15   11   17 1   
    16   11   18 1   
    17   12   13 1   
    18   12   14 1   
    19   19   20 1   
    20   19   28 1   
    21   20   21 1   
    22   20   23 1   
    23   20   29 1   
    24   21   22 2   
    25   21   41 1   
    26   23   24 1   
    27   23   30 1   
    28   23   31 1   
    29   24   25 1   
    30   24   32 1   
    31   24   33 1   
    32   25   26 1   
    33   25   34 1   
    34   25   35 1   
    35   26   27 1   
    36   26   36 1   
    37   26   37 1   
    38   27   38 1   
    39   27   39 1   
    40   27   40 1   
    41   41   42 1   
    42   41   49 1   
    43   42   43 1   
    44   42   45 1   
    45   42   50 1   
    46   43   44 2   
    47   43   53 1   
    48   45   46 1   
    49   45   51 1   
    50   45   52 1   
    51   46   47 1   
    52   46   48 1   
    53   53   54 1   
    54   53   57 1   
    55   54   55 1   
    56   54   58 1   
    57   54   59 1   
    58   55   56 2   
    59   55   60 1   
    60   60   61 1   
    61   60   68 1   
    62   61   62 1   
    63   61   64 1   
    64   61   69 1   
    65   62   63 2   
    66   62   74 1   
    67   64   65 1   
    68   64   70 1   
    69   64   71 1   
    70   65   66 1   
    71   65   67 2   
    72   66   72 1   
    73   66   73 1   
    74   74   75 1   
    75   74   78 1   
    76   75   76 1   
    77   75   79 1   
    78   75   80 1   
    79   76   77 2   
    80   76   81 1   
    81   81   82 1   
    82   81   93 1   
    83   82   83 1   
    84   82   85 1   
    85   82   94 1   
    86   83   84 2   
    87   83  102 1   
    88   85   86 1   
    89   85   95 1   
    90   85   96 1   
    91   86   87 ar  
    92   86   88 ar  
    93   87   89 ar  
    94   87   97 1   
    95   88   90 ar  
    96   88   98 1   
    97   89   91 ar  
    98   89   99 1   
    99   90   91 ar  
   100   90  100 1   
   101   91   92 1   
   102   92  101 1   
   103  102  103 1   
   104  102  110 1   
   105  103  104 1   
   106  103  106 1   
   107  103  111 1   
   108  104  105 2   
   109  104  121 1   
   110  106  107 1   
   111  106  108 1   
   112  106  112 1   
   113  107  109 1   
   114  107  113 1   
   115  107  114 1   
   116  108  115 1   
   117  108  116 1   
   118  108  117 1   
   119  109  118 1   
   120  109  119 1   
   121  109  120 1   
   122  121  122 1   
   123  121  127 1   
   124  122  123 1   
   125  122  125 1   
   126  122  128 1   
   127  123  124 2   
   128  123  132 1   
   129  125  126 1   
   130  125  129 1   
   131  125  130 1   
   132  126  131 1   
   133  132  133 1   
   134  132  137 1   
   135  133  134 1   
   136  133  136 1   
   137  133  138 1   
   138  134  135 2   
   139  134  142 1   
   140  136  139 1   
   141  136  140 1   
   142  136  141 1   
   143  142  143 1   
   144  142  147 1   
   145  143  144 1   
   146  143  146 1   
   147  143  148 1   
   148  144  145 2   
   149  144  152 1   
   150  146  149 1   
   151  146  150 1   
   152  146  151 1   
   153  152  153 1   
   154  152  161 1   
   155  153  154 1   
   156  153  156 1   
   157  153  162 1   
   158  154  155 2   
   159  154  167 1   
   160  156  157 1   
   161  156  163 1   
   162  156  164 1   
   163  157  158 1   
   164  157  165 1   
   165  157  166 1   
   166  158  159 1   
   167  158  160 1   
   168  167  168 1   
   169  167  172 1   
   170  168  169 1   
   171  168  170 1   
   172  168  171 1   
   173  174  175 1   
   174  174  176 1   
   175  177  178 1   
   176  177  179 1   
@<TRIPOS>SUBSTRUCTURE
     1 MOL         1 TEMP              0 ****  ****    0 ROOT
