@<TRIPOS>MOLECULE
MOL
  189   185     1     0     0
SMALL
resp


@<TRIPOS>ATOM
      1 C1          0.0680    2.7740    5.0620 c3        1 MOL     -0.264269
      2 C2         -0.4540    2.4140    3.6440 c         1 MOL      0.722323
      3 O1          0.1870    2.7470    2.6690 o         1 MOL     -0.623650
      4 H1          1.0590    3.2200    4.9810 hc        1 MOL      0.061944
      5 H2         -0.6130    3.4840    5.5300 hc        1 MOL      0.061944
      6 H3          0.1250    1.8710    5.6690 hc        1 MOL      0.061944
      7 N1         -1.6710    1.9150    3.6180 n         1 MOL     -0.673440
      8 C3         -2.4160    1.6450    2.3900 c3        1 MOL      0.506093
      9 C4         -2.9670    2.9480    1.6490 c         1 MOL      0.213066
     10 O2         -4.1680    3.1530    1.6010 o         1 MOL     -0.467642
     11 C5         -3.4480    0.6570    2.8120 c3        1 MOL     -0.272483
     12 C6         -4.1080    0.1650    1.4830 c         1 MOL      0.648599
     13 O3         -3.6500    0.4030    0.3120 o         1 MOL     -0.620725
     14 O4         -5.1530   -0.5080    1.5950 o         1 MOL     -0.620725
     15 H4         -2.1740    1.6810    4.4600 hn        1 MOL      0.327211
     16 H5         -1.7050    1.2430    1.6700 h1        1 MOL     -0.039462
     17 H6         -4.1460    1.1280    3.5020 hc        1 MOL      0.062111
     18 H7         -2.8910   -0.1230    3.3290 hc        1 MOL      0.062111
     19 N2         -2.1440    3.7770    1.0620 n         1 MOL     -0.230298
     20 C7         -2.4670    5.0550    0.4890 c3        1 MOL     -0.014870
     21 C8         -2.9930    4.9690   -0.9680 c         1 MOL      0.443206
     22 O5         -3.1020    5.9870   -1.7100 o         1 MOL     -0.546083
     23 C9         -1.2420    5.9790    0.5640 c3        1 MOL     -0.360468
     24 C10        -0.8220    6.2810    1.9830 c3        1 MOL      0.275916
     25 C11         0.1940    7.3980    1.9280 c3        1 MOL      0.038686
     26 C12         0.9420    7.5940    3.2000 c3        1 MOL     -0.111302
     27 N3          0.0880    8.1020    4.3130 n4        1 MOL     -0.407426
     28 H8         -1.1920    3.4480    1.1490 hn        1 MOL      0.291218
     29 H9         -3.2530    5.5530    1.0670 h1        1 MOL      0.100446
     30 H10        -1.3850    6.8950   -0.0040 hc        1 MOL      0.126492
     31 H11        -0.3830    5.4020    0.2390 hc        1 MOL      0.126492
     32 H12        -0.3170    5.4530    2.4820 hc        1 MOL     -0.052286
     33 H13        -1.5840    6.5850    2.6950 hc        1 MOL     -0.052286
     34 H14        -0.2240    8.3650    1.6380 hc        1 MOL      0.003851
     35 H15         0.9280    7.1720    1.1550 hc        1 MOL      0.003851
     36 H16         1.5860    8.4530    2.9820 hx        1 MOL      0.132980
     37 H17         1.5190    6.7090    3.4720 hx        1 MOL      0.132980
     38 H18        -0.6940    8.6110    3.9270 hn        1 MOL      0.341321
     39 H19        -0.1680    7.3350    4.9220 hn        1 MOL      0.341321
     40 H20         0.5330    8.8700    4.8060 hn        1 MOL      0.341321
     41 N4         -3.5390    3.7860   -1.3030 n         1 MOL     -0.226643
     42 C13        -4.4070    3.6120   -2.4630 c3        1 MOL      0.163147
     43 C14        -5.7080    2.8440   -2.2190 c         1 MOL      0.369868
     44 O6         -6.7230    2.9870   -2.9280 o         1 MOL     -0.527519
     45 C15        -3.5650    3.2350   -3.6950 c3        1 MOL     -0.337789
     46 C16        -2.5130    2.2050   -3.4110 c         1 MOL      0.832727
     47 O7         -1.4780    2.1280   -4.1420 o         1 MOL     -0.721890
     48 O8         -2.8570    1.2920   -2.5860 o         1 MOL     -0.721890
     49 H21        -3.4700    3.0910   -0.5780 hn        1 MOL      0.099615
     50 H22        -4.8000    4.5890   -2.7370 h1        1 MOL      0.059607
     51 H23        -2.9590    4.0580   -4.0550 hc        1 MOL      0.079659
     52 H24        -4.2760    2.7580   -4.3670 hc        1 MOL      0.079659
     53 N5         -5.7340    2.0720   -1.1170 n         1 MOL     -0.112192
     54 C17        -6.9780    1.4770   -0.5700 c3        1 MOL     -0.228614
     55 C18        -7.3310    0.1180   -1.0710 c         1 MOL      0.630964
     56 O9         -8.5080   -0.1550   -1.0700 o         1 MOL     -0.586259
     57 H25        -4.8890    1.8920   -0.6010 hn        1 MOL      0.095794
     58 H26        -7.8380    2.1350   -0.6290 h1        1 MOL      0.117640
     59 H27        -6.7080    1.4590    0.4950 h1        1 MOL      0.117640
     60 N6         -6.3540   -0.6440   -1.5910 n         1 MOL     -0.337280
     61 C19        -6.6300   -2.0350   -2.0300 c3        1 MOL      0.019048
     62 C20        -6.6720   -3.0890   -0.8890 c         1 MOL      0.302622
     63 O10        -7.2480   -4.1650   -1.0360 o         1 MOL     -0.537497
     64 C21        -5.5600   -2.5470   -2.9760 c3        1 MOL     -0.152886
     65 C22        -4.1030   -2.2010   -2.5510 c         1 MOL      0.691146
     66 O11        -3.7780   -2.2590   -1.3410 o         1 MOL     -0.707549
     67 O12        -3.2720   -1.8130   -3.3940 o         1 MOL     -0.707549
     68 H28        -5.4110   -0.3120   -1.4210 hn        1 MOL      0.212467
     69 H29        -7.5430   -2.0370   -2.6240 h1        1 MOL      0.118655
     70 H30        -5.7370   -2.1330   -3.9790 hc        1 MOL      0.048725
     71 H31        -5.6550   -3.6240   -3.0860 hc        1 MOL      0.048725
     72 N7         -6.2190   -2.7020    0.3100 n         1 MOL      0.047514
     73 C23        -6.3900   -3.4200    1.6040 c3        1 MOL     -0.180463
     74 C24        -5.1570   -4.2800    1.8730 c         1 MOL      0.535280
     75 O13        -5.3230   -5.2700    2.5370 o         1 MOL     -0.554603
     76 H32        -5.8630   -1.7600    0.3400 hn        1 MOL      0.089013
     77 H33        -7.1920   -4.1600    1.6090 h1        1 MOL      0.093559
     78 H34        -6.6700   -2.6620    2.3290 h1        1 MOL      0.093559
     79 N8         -4.0060   -3.9470    1.2510 n         1 MOL     -0.156482
     80 C25        -2.6620   -4.4980    1.2820 c3        1 MOL     -0.329016
     81 C26        -1.5000   -3.4490    1.4550 c         1 MOL      0.789546
     82 O14        -1.6810   -2.3520    0.9620 o         1 MOL     -0.638179
     83 C27        -2.3930   -5.3660    0.0860 c3        1 MOL      0.440563
     84 C28        -3.2080   -6.6330   -0.0540 c3        1 MOL     -0.470989
     85 O15        -2.5110   -4.5980   -1.0870 oh        1 MOL     -0.616213
     86 H35        -4.1630   -3.1330    0.6670 hn        1 MOL      0.104162
     87 H36        -2.6300   -5.1860    2.1280 h1        1 MOL      0.103477
     88 H37        -1.3500   -5.6670    0.0700 h1        1 MOL      0.007254
     89 H38        -3.1910   -3.9300   -0.9480 ho        1 MOL      0.419247
     90 H39        -2.8050   -7.1770   -0.9090 hc        1 MOL      0.124109
     91 H40        -3.0610   -7.2740    0.8130 hc        1 MOL      0.124109
     92 H41        -4.2380   -6.3510   -0.2900 hc        1 MOL      0.124109
     93 N9         -0.3800   -3.7600    2.1080 n         1 MOL     -0.622110
     94 C29         0.8030   -2.9200    2.1480 c3        1 MOL     -0.061580
     95 C30         1.8850   -3.4950    1.2180 c         1 MOL      0.595122
     96 O16         2.2730   -4.6540    1.4460 o         1 MOL     -0.590330
     97 C31         1.2200   -2.8380    3.5850 c3        1 MOL      0.318347
     98 C32         0.0070   -2.3220    4.4510 c3        1 MOL      0.194418
     99 C33         2.3970   -1.9050    3.6400 c3        1 MOL     -0.315564
    100 C34         0.3080   -2.0590    5.8560 c3        1 MOL     -0.180736
    101 H42        -0.2680   -4.6950    2.4820 hn        1 MOL      0.301707
    102 H43         0.5940   -1.9310    1.7560 h1        1 MOL      0.127218
    103 H44         1.5930   -3.7340    4.0820 hc        1 MOL     -0.034880
    104 H45        -0.6980   -3.1410    4.3690 hc        1 MOL     -0.051064
    105 H46        -0.4370   -1.4760    3.9290 hc        1 MOL     -0.051064
    106 H47         3.2930   -2.3060    3.1690 hc        1 MOL      0.037689
    107 H48         2.3070   -0.8530    3.3680 hc        1 MOL      0.037689
    108 H49         2.6510   -1.9660    4.7020 hc        1 MOL      0.037689
    109 H50         1.0050   -1.2440    5.9880 hc        1 MOL      0.031310
    110 H51        -0.6090   -1.8030    6.3950 hc        1 MOL      0.031310
    111 H52         0.7200   -2.9220    6.3820 hc        1 MOL      0.031310
    112 N10         2.2650   -2.7900    0.1670 n         1 MOL     -0.240804
    113 C35         3.4760   -2.9840   -0.5950 c3        1 MOL     -0.223942
    114 C36         4.8110   -2.5690    0.0140 c         1 MOL      0.520528
    115 O17         4.8760   -1.6850    0.8140 o         1 MOL     -0.367666
    116 C37         3.3800   -2.3020   -1.9680 c3        1 MOL      0.445590
    117 C38         2.5830   -2.8960   -3.1090 c3        1 MOL     -0.480234
    118 O18         3.0040   -0.9430   -1.7000 oh        1 MOL     -0.570017
    119 H53         1.8820   -1.8700    0.0530 hn        1 MOL      0.198820
    120 H54         3.5150   -4.0420   -0.8590 h1        1 MOL      0.095674
    121 H55         4.3940   -2.2520   -2.3490 h1        1 MOL     -0.008003
    122 H56         2.1010   -0.9250   -1.3780 ho        1 MOL      0.335398
    123 H57         1.5210   -2.6410   -3.0300 hc        1 MOL      0.122394
    124 H58         2.9220   -2.4710   -4.0550 hc        1 MOL      0.122394
    125 H59         2.6230   -3.9800   -3.1740 hc        1 MOL      0.122394
    126 N11         5.8820   -3.2670   -0.4350 n         1 MOL     -0.309572
    127 C39         7.3070   -3.0400   -0.0320 c3        1 MOL     -0.289546
    128 C40         7.6910   -1.5590   -0.1490 c         1 MOL      0.478440
    129 O19         8.3580   -1.0370    0.7630 o         1 MOL     -0.513505
    130 C41         8.3140   -3.8470   -0.8660 c3        1 MOL      0.452116
    131 C42         8.4740   -5.3710   -0.6100 c3        1 MOL     -0.407826
    132 O20         8.0310   -3.6280   -2.1510 oh        1 MOL     -0.669411
    133 H60         5.6670   -4.0150   -1.0810 hn        1 MOL      0.233070
    134 H61         7.4110   -3.3280    1.0120 h1        1 MOL      0.169668
    135 H62         9.2970   -3.4160   -0.6620 h1        1 MOL      0.016715
    136 H63         8.1610   -4.4910   -2.5420 ho        1 MOL      0.422290
    137 H64         7.6100   -5.9900   -0.8710 hc        1 MOL      0.110497
    138 H65         9.2560   -5.7340   -1.2720 hc        1 MOL      0.110497
    139 H66         8.8050   -5.3510    0.4240 hc        1 MOL      0.110497
    140 N12         7.1450   -0.7800   -1.1110 n         1 MOL     -0.239055
    141 C43         7.0970    0.6650   -1.2430 c3        1 MOL     -0.055304
    142 C44         6.2680    1.4890   -0.2870 c         1 MOL      0.437830
    143 O21         6.6840    2.5640    0.1620 o         1 MOL     -0.559631
    144 C45         6.5950    1.0890   -2.6630 c3        1 MOL     -0.062120
    145 C46         6.5030    2.5470   -3.0180 c3        1 MOL     -0.069762
    146 C47         6.1470    2.6410   -4.5240 c3        1 MOL     -0.067698
    147 C48         5.9160    4.1620   -4.8460 c3        1 MOL      0.115761
    148 N13         6.0140    4.3540   -6.3000 n4        1 MOL     -0.425372
    149 H67         6.5460   -1.3130   -1.7210 hn        1 MOL      0.221757
    150 H68         8.1240    0.9700   -1.0610 h1        1 MOL      0.102890
    151 H69         5.6130    0.6320   -2.7510 hc        1 MOL      0.038785
    152 H70         7.1940    0.4510   -3.3000 hc        1 MOL      0.038785
    153 H71         7.4710    3.0240   -2.8460 hc        1 MOL      0.054555
    154 H72         5.7130    3.0280   -2.4560 hc        1 MOL      0.054555
    155 H73         5.2020    2.1660   -4.7860 hc        1 MOL      0.050902
    156 H74         6.9310    2.2510   -5.1850 hc        1 MOL      0.050902
    157 H75         6.6880    4.8020   -4.4090 hx        1 MOL      0.081555
    158 H76         5.0340    4.5400   -4.3220 hx        1 MOL      0.081555
    159 H77         5.4490    3.7530   -6.8940 hn        1 MOL      0.338983
    160 H78         5.6690    5.2650   -6.5670 hn        1 MOL      0.338983
    161 H79         6.9430    4.1590   -6.6400 hn        1 MOL      0.338983
    162 N14         5.0600    0.9930    0.1390 n         1 MOL      0.009941
    163 C49         4.2320    1.7020    1.1540 c3        1 MOL     -0.401417
    164 C50         4.8730    1.6800    2.5700 c         1 MOL      0.661445
    165 O22         4.4980    2.5470    3.3430 o         1 MOL     -0.583650
    166 C51         2.8720    1.0370    1.0730 c3        1 MOL      0.182648
    167 C52         1.9680    1.5150   -0.0740 c3        1 MOL     -0.170209
    168 C53         0.6470    0.7830   -0.2350 c         1 MOL      0.783000
    169 O23        -0.4310    1.4390   -0.2890 o         1 MOL     -0.758797
    170 O24         0.6780   -0.4740   -0.3930 o         1 MOL     -0.758797
    171 H80         4.7340    0.0610   -0.0550 hn        1 MOL     -0.054354
    172 H81         4.1840    2.7480    0.8600 h1        1 MOL      0.150411
    173 H82         2.2830    1.3120    1.9610 hc        1 MOL      0.020646
    174 H83         3.0440   -0.0380    1.0830 hc        1 MOL      0.020646
    175 H84         2.4610    1.5240   -1.0450 hc        1 MOL      0.054240
    176 H85         1.7960    2.5780    0.1150 hc        1 MOL      0.054240
    177 N15         5.6800    0.6550    2.9020 n         1 MOL     -0.229721
    178 C54         6.5430    0.6270    4.0250 c3        1 MOL     -0.303804
    179 H86         7.3990    1.2760    3.8410 h1        1 MOL      0.114227
    180 H87         6.0050    0.9760    4.9060 h1        1 MOL      0.114227
    181 H88         6.8910   -0.3930    4.1910 h1        1 MOL      0.114227
    182 H89         5.8530   -0.0570    2.2160 hn        1 MOL      0.257150
    183 Ca1        -1.8170   -0.5990   -1.3500 Ca        1 MOL      1.770203
    184 O25        -0.9010   -2.9700   -2.4110 oh        1 MOL     -0.860765
    185 H90        -1.3710   -3.7260   -2.0620 ho        1 MOL      0.395633
    186 H91        -0.5710   -3.2640   -3.2630 ho        1 MOL      0.395633
    187 O26        -0.2860   -0.0610   -3.2940 oh        1 MOL     -0.860765
    188 H92        -0.6040    0.7070   -3.7560 ho        1 MOL      0.395633
    189 H93         0.0560   -0.6320   -3.9830 ho        1 MOL      0.395633
@<TRIPOS>BOND
     1    1    2 1   
     2    1    4 1   
     3    1    5 1   
     4    1    6 1   
     5    2    3 2   
     6    2    7 1   
     7    7    8 1   
     8    7   15 1   
     9    8    9 1   
    10    8   11 1   
    11    8   16 1   
    12    9   10 2   
    13    9   19 1   
    14   11   12 1   
    15   11   17 1   
    16   11   18 1   
    17   12   13 1   
    18   12   14 1   
    19   19   20 1   
    20   19   28 1   
    21   20   21 1   
    22   20   23 1   
    23   20   29 1   
    24   21   22 2   
    25   21   41 1   
    26   23   24 1   
    27   23   30 1   
    28   23   31 1   
    29   24   25 1   
    30   24   32 1   
    31   24   33 1   
    32   25   26 1   
    33   25   34 1   
    34   25   35 1   
    35   26   27 1   
    36   26   36 1   
    37   26   37 1   
    38   27   38 1   
    39   27   39 1   
    40   27   40 1   
    41   41   42 1   
    42   41   49 1   
    43   42   43 1   
    44   42   45 1   
    45   42   50 1   
    46   43   44 2   
    47   43   53 1   
    48   45   46 1   
    49   45   51 1   
    50   45   52 1   
    51   46   47 1   
    52   46   48 1   
    53   53   54 1   
    54   53   57 1   
    55   54   55 1   
    56   54   58 1   
    57   54   59 1   
    58   55   56 2   
    59   55   60 1   
    60   60   61 1   
    61   60   68 1   
    62   61   62 1   
    63   61   64 1   
    64   61   69 1   
    65   62   63 2   
    66   62   72 1   
    67   64   65 1   
    68   64   70 1   
    69   64   71 1   
    70   65   66 1   
    71   65   67 1   
    72   72   73 1   
    73   72   76 1   
    74   73   74 1   
    75   73   77 1   
    76   73   78 1   
    77   74   75 2   
    78   74   79 1   
    79   79   80 1   
    80   79   86 1   
    81   80   81 1   
    82   80   83 1   
    83   80   87 1   
    84   81   82 2   
    85   81   93 1   
    86   83   84 1   
    87   83   85 1   
    88   83   88 1   
    89   84   90 1   
    90   84   91 1   
    91   84   92 1   
    92   85   89 1   
    93   93   94 1   
    94   93  101 1   
    95   94   95 1   
    96   94   97 1   
    97   94  102 1   
    98   95   96 2   
    99   95  112 1   
   100   97   98 1   
   101   97   99 1   
   102   97  103 1   
   103   98  100 1   
   104   98  104 1   
   105   98  105 1   
   106   99  106 1   
   107   99  107 1   
   108   99  108 1   
   109  100  109 1   
   110  100  110 1   
   111  100  111 1   
   112  112  113 1   
   113  112  119 1   
   114  113  114 1   
   115  113  116 1   
   116  113  120 1   
   117  114  115 2   
   118  114  126 1   
   119  116  117 1   
   120  116  118 1   
   121  116  121 1   
   122  117  123 1   
   123  117  124 1   
   124  117  125 1   
   125  118  122 1   
   126  126  127 1   
   127  126  133 1   
   128  127  128 1   
   129  127  130 1   
   130  127  134 1   
   131  128  129 2   
   132  128  140 1   
   133  130  131 1   
   134  130  132 1   
   135  130  135 1   
   136  131  137 1   
   137  131  138 1   
   138  131  139 1   
   139  132  136 1   
   140  140  141 1   
   141  140  149 1   
   142  141  142 1   
   143  141  144 1   
   144  141  150 1   
   145  142  143 2   
   146  142  162 1   
   147  144  145 1   
   148  144  151 1   
   149  144  152 1   
   150  145  146 1   
   151  145  153 1   
   152  145  154 1   
   153  146  147 1   
   154  146  155 1   
   155  146  156 1   
   156  147  148 1   
   157  147  157 1   
   158  147  158 1   
   159  148  159 1   
   160  148  160 1   
   161  148  161 1   
   162  162  163 1   
   163  162  171 1   
   164  163  164 1   
   165  163  166 1   
   166  163  172 1   
   167  164  165 2   
   168  164  177 1   
   169  166  167 1   
   170  166  173 1   
   171  166  174 1   
   172  167  168 1   
   173  167  175 1   
   174  167  176 1   
   175  168  169 1   
   176  168  170 1   
   177  177  178 1   
   178  177  182 1   
   179  178  179 1   
   180  178  180 1   
   181  178  181 1   
   182  184  185 1   
   183  184  186 1   
   184  187  188 1   
   185  187  189 1   
@<TRIPOS>SUBSTRUCTURE
     1 MOL         1 TEMP              0 ****  ****    0 ROOT
