@<TRIPOS>MOLECULE
MOL
  189   185     1     0     0
SMALL
resp


@<TRIPOS>ATOM
      1 C1          0.7800   -4.2180    5.9480 c3        1 MOL     -0.352584
      2 C2          1.2390   -3.5140    4.6220 c         1 MOL      0.776762
      3 O1          1.3820   -2.3070    4.5480 o         1 MOL     -0.582136
      4 H1          1.6570   -4.4750    6.5440 hc        1 MOL      0.085389
      5 H2          0.1400   -3.5430    6.5160 hc        1 MOL      0.085389
      6 H3          0.2280   -5.1260    5.7050 hc        1 MOL      0.085389
      7 N1          1.6040   -4.3810    3.6480 n         1 MOL     -0.678412
      8 C3          2.0730   -3.9190    2.3740 c3        1 MOL      0.178563
      9 C4          1.8320   -5.0010    1.2700 c         1 MOL      0.484582
     10 O2          1.9670   -6.1800    1.4940 o         1 MOL     -0.561673
     11 C5          3.5260   -3.6510    2.4750 c3        1 MOL     -0.135646
     12 C6          4.0690   -2.7320    1.4800 c         1 MOL      0.752812
     13 O3          5.1080   -2.0930    1.7900 o         1 MOL     -0.715951
     14 O4          3.4190   -2.4850    0.4470 o         1 MOL     -0.715951
     15 H4          1.8570   -5.3050    3.9620 hn        1 MOL      0.336965
     16 H5          1.5140   -3.0470    2.0570 h1        1 MOL      0.063690
     17 H6          3.9940   -4.6290    2.4200 hc        1 MOL      0.028278
     18 H7          3.7850   -3.2720    3.4720 hc        1 MOL      0.028278
     19 N2          1.4570   -4.5140    0.0380 n         1 MOL     -0.341979
     20 C7          1.2490   -5.3830   -1.1270 c3        1 MOL     -0.087924
     21 C8          2.2530   -5.1000   -2.2110 c         1 MOL      0.622238
     22 O5          2.3340   -5.8730   -3.1550 o         1 MOL     -0.610318
     23 C9         -0.2990   -5.3250   -1.4550 c3        1 MOL      0.308211
     24 C10        -1.1030   -6.2970   -0.5210 c3        1 MOL     -0.037623
     25 C11        -0.6690   -5.7410   -2.8640 c3        1 MOL     -0.268541
     26 C12        -2.6420   -6.2370   -0.6260 c3        1 MOL     -0.194100
     27 H8          1.2380   -3.5290   -0.0450 hn        1 MOL      0.284243
     28 H9          1.4350   -6.4330   -0.8930 h1        1 MOL      0.058844
     29 H10        -0.5960   -4.2970   -1.2460 hc        1 MOL     -0.072874
     30 H11        -0.9020   -5.9710    0.4990 hc        1 MOL      0.018208
     31 H12        -0.7650   -7.3350   -0.5620 hc        1 MOL      0.018208
     32 H13        -0.1300   -5.1320   -3.5940 hc        1 MOL      0.052969
     33 H14        -0.4340   -6.7980   -2.9500 hc        1 MOL      0.052969
     34 H15        -1.7020   -5.6000   -3.1650 hc        1 MOL      0.052969
     35 H16        -3.0040   -6.6640   -1.5640 hc        1 MOL      0.046562
     36 H17        -3.0180   -6.7360    0.2640 hc        1 MOL      0.046562
     37 H18        -2.9520   -5.1920   -0.5180 hc        1 MOL      0.046562
     38 N3          2.9960   -3.9780   -2.1850 n         1 MOL     -0.457522
     39 C13         3.9750   -3.5450   -3.2550 c3        1 MOL      0.110403
     40 C14         5.3900   -3.1190   -2.7720 c         1 MOL      0.347149
     41 O6          6.2660   -3.0240   -3.6330 o         1 MOL     -0.538806
     42 C15         3.3320   -2.3890   -4.0840 c3        1 MOL     -0.237100
     43 C16         2.8730   -1.1480   -3.3820 c         1 MOL      0.791578
     44 O7          3.4240   -0.9350   -2.2930 o         1 MOL     -0.726291
     45 O8          1.9050   -0.4940   -3.7810 o         1 MOL     -0.726291
     46 H19         2.8220   -3.2950   -1.4680 hn        1 MOL      0.275546
     47 H20         4.1510   -4.4300   -3.8620 h1        1 MOL      0.086559
     48 H21         2.5800   -2.8950   -4.6800 hc        1 MOL      0.054495
     49 H22         4.0590   -2.0550   -4.8360 hc        1 MOL      0.054495
     50 N4          5.6200   -2.7390   -1.4810 n         1 MOL     -0.173185
     51 C17         6.8720   -2.2940   -0.9630 c3        1 MOL     -0.152216
     52 C18         7.2620   -0.8150   -1.2960 c         1 MOL      0.465551
     53 O9          8.4120   -0.4510   -1.1170 o         1 MOL     -0.607040
     54 H23         4.7800   -2.6620   -0.9160 hn        1 MOL      0.083146
     55 H24         7.6210   -2.9900   -1.3380 h1        1 MOL      0.100366
     56 H25         6.9160   -2.5690    0.0920 h1        1 MOL      0.100366
     57 N5          6.3390    0.0660   -1.6720 n         1 MOL     -0.238418
     58 C19         6.7380    1.4070   -2.0890 c3        1 MOL      0.057540
     59 C20         7.0910    2.3610   -0.9710 c         1 MOL      0.428302
     60 O10         7.6350    3.4350   -1.2190 o         1 MOL     -0.581768
     61 C21         5.6280    1.9800   -2.9960 c3        1 MOL     -0.460748
     62 C22         4.1880    1.9970   -2.4010 c         1 MOL      0.809763
     63 O11         3.9420    1.5950   -1.2130 o         1 MOL     -0.677921
     64 O12         3.2470    2.5520   -3.0560 o         1 MOL     -0.677921
     65 H26         5.3720   -0.1920   -1.5520 hn        1 MOL      0.301902
     66 H27         7.6790    1.3240   -2.6360 h1        1 MOL      0.105540
     67 H28         5.6310    1.4550   -3.9530 hc        1 MOL      0.116437
     68 H29         5.9160    3.0230   -3.1460 hc        1 MOL      0.116437
     69 N6          6.7120    2.0740    0.2800 n         1 MOL     -0.133955
     70 C23         6.9390    2.8980    1.4670 c3        1 MOL     -0.339260
     71 C24         5.7610    3.7860    1.7420 c         1 MOL      0.561435
     72 O13         5.8300    4.5170    2.7300 o         1 MOL     -0.601028
     73 H30         6.2250    1.2190    0.4890 hn        1 MOL      0.207132
     74 H31         7.7930    3.5810    1.4350 h1        1 MOL      0.132992
     75 H32         7.0270    2.2460    2.3480 h1        1 MOL      0.132992
     76 N7          4.7060    3.7710    0.9370 n         1 MOL     -0.207374
     77 C25         3.4860    4.4740    1.1100 c3        1 MOL     -0.050230
     78 C26         2.3640    3.4870    1.4750 c         1 MOL      0.592557
     79 O14         2.6050    2.2940    1.5880 o         1 MOL     -0.597743
     80 C27         3.0510    5.1930   -0.2180 c3        1 MOL      0.024411
     81 C28         4.1510    5.9970   -0.9280 c3        1 MOL     -0.274406
     82 C29         4.8390    7.0960   -0.0530 c         1 MOL      0.715336
     83 N8          5.8050    7.7570   -0.6220 n         1 MOL     -0.835614
     84 O15         4.3960    7.3050    1.0990 o         1 MOL     -0.562404
     85 H33         4.6820    3.0000    0.2890 hn        1 MOL      0.202524
     86 H34         3.5300    5.2310    1.8950 h1        1 MOL      0.085880
     87 H35         2.2150    5.8420    0.0370 hc        1 MOL      0.030861
     88 H36         2.7310    4.5040   -0.9960 hc        1 MOL      0.030861
     89 H37         3.6160    6.4890   -1.7540 hc        1 MOL      0.075098
     90 H38         4.9080    5.3650   -1.3870 hc        1 MOL      0.075098
     91 H39         6.2150    7.3630   -1.4580 hn        1 MOL      0.365409
     92 H40         6.4570    8.3510   -0.1070 hn        1 MOL      0.365409
     93 N9          1.1800    3.9920    1.6740 n         1 MOL     -0.524633
     94 C30        -0.0400    3.1530    2.0230 c3        1 MOL     -0.132070
     95 C31        -1.2100    3.2910    0.9990 c         1 MOL      0.530408
     96 O16        -1.6110    4.3860    0.7180 o         1 MOL     -0.559674
     97 C32        -0.4880    3.3870    3.4400 c3        1 MOL      0.382048
     98 C33        -1.6430    2.4980    3.8290 c3        1 MOL     -0.277420
     99 C34         0.6370    3.2500    4.5220 c3        1 MOL     -0.277420
    100 H41         0.9780    4.9800    1.6310 hn        1 MOL      0.308443
    101 H42         0.1710    2.0900    1.9150 h1        1 MOL      0.200412
    102 H43        -0.9040    4.3790    3.6380 hc        1 MOL     -0.046659
    103 H44        -1.4540    1.4270    3.8310 hc        1 MOL      0.049905
    104 H45        -1.8570    2.6670    4.8830 hc        1 MOL      0.049905
    105 H46        -2.5570    2.7940    3.3180 hc        1 MOL      0.049905
    106 H47         1.1300    2.2960    4.3280 hc        1 MOL      0.049905
    107 H48         1.3820    4.0210    4.3500 hc        1 MOL      0.049905
    108 H49         0.2300    3.4240    5.5190 hc        1 MOL      0.049905
    109 N10        -1.8050    2.1160    0.6640 n         1 MOL     -0.299263
    110 C35        -2.9070    1.9860   -0.3520 c3        1 MOL      0.162994
    111 C36        -4.2270    1.5350    0.2910 c         1 MOL      0.349612
    112 O17        -4.2940    1.0630    1.3890 o         1 MOL     -0.367705
    113 C37        -2.3750    1.0290   -1.4150 c3        1 MOL     -0.134303
    114 C38        -3.1820    1.1330   -2.7110 c         1 MOL      0.586427
    115 N11        -2.9230    0.1930   -3.5990 n         1 MOL     -0.759694
    116 O18        -4.1040    1.9000   -2.9530 o         1 MOL     -0.541066
    117 H50        -1.3680    1.2700    1.0230 hn        1 MOL      0.150919
    118 H51        -3.1370    2.9820   -0.7330 h1        1 MOL      0.031268
    119 H52        -2.3880    0.0130   -0.9960 hc        1 MOL      0.060765
    120 H53        -1.3930    1.4290   -1.6490 hc        1 MOL      0.060765
    121 H54        -2.0050   -0.2230   -3.5100 hn        1 MOL      0.374494
    122 H55        -3.5510    0.1120   -4.3810 hn        1 MOL      0.374494
    123 N12        -5.3490    1.8040   -0.3850 n         1 MOL     -0.295144
    124 C39        -6.7110    1.4160    0.0770 c3        1 MOL     -0.038173
    125 C40        -6.7050   -0.0620    0.5830 c         1 MOL      0.425651
    126 O19        -7.0140   -0.3260    1.7460 o         1 MOL     -0.508197
    127 C41        -7.7680    1.5460   -1.0980 c3        1 MOL     -0.000058
    128 C42        -8.1920    2.9470   -1.3830 ca        1 MOL      0.047297
    129 C43        -9.2860    3.4470   -0.7000 ca        1 MOL     -0.105238
    130 C44        -7.4990    3.7120   -2.3310 ca        1 MOL     -0.105238
    131 C45        -9.6640    4.8070   -0.8090 ca        1 MOL     -0.312367
    132 C46        -7.8210    5.0940   -2.5220 ca        1 MOL     -0.312367
    133 C47        -8.9220    5.6010   -1.7650 ca        1 MOL      0.326133
    134 O20        -9.3580    6.8870   -1.9090 oh        1 MOL     -0.517604
    135 H56        -5.2190    2.1940   -1.3070 hn        1 MOL      0.191385
    136 H57        -7.0710    2.0590    0.8750 h1        1 MOL      0.060140
    137 H58        -8.6570    0.9270   -1.0160 hc        1 MOL      0.035793
    138 H59        -7.3170    1.1880   -2.0310 hc        1 MOL      0.035793
    139 H60        -9.8250    2.8480    0.0310 ha        1 MOL      0.123782
    140 H61        -6.6280    3.2940   -2.8070 ha        1 MOL      0.123782
    141 H62       -10.5090    5.1350   -0.2270 ha        1 MOL      0.157504
    142 H63        -7.3560    5.6460   -3.3240 ha        1 MOL      0.157504
    143 H64        -8.7060    7.3910   -2.4020 ho        1 MOL      0.364132
    144 N13        -6.2680   -0.8890   -0.4000 n         1 MOL     -0.189265
    145 C48        -6.3050   -2.3560   -0.2480 c3        1 MOL     -0.193369
    146 C49        -5.4180   -2.8060    0.9260 c         1 MOL      0.491310
    147 O21        -5.6770   -3.7840    1.5680 o         1 MOL     -0.527379
    148 C50        -5.7140   -2.9750   -1.5710 c3        1 MOL     -0.144632
    149 C51        -6.3550   -2.3240   -2.8300 c3        1 MOL     -0.042994
    150 C52        -7.8720   -2.0390   -2.7160 c         1 MOL      0.727555
    151 O22        -8.2990   -0.9570   -3.1520 o         1 MOL     -0.729195
    152 O23        -8.6120   -2.9660   -2.3480 o         1 MOL     -0.729195
    153 H65        -5.9070   -0.4590   -1.2420 hn        1 MOL      0.259997
    154 H66        -7.3170   -2.7160   -0.0640 h1        1 MOL      0.151951
    155 H67        -5.9220   -4.0550   -1.5790 hc        1 MOL      0.061877
    156 H68        -4.6340   -2.9310   -1.6470 hc        1 MOL      0.061877
    157 H69        -6.3050   -3.0600   -3.6280 hc        1 MOL     -0.024103
    158 H70        -5.8620   -1.4440   -3.2400 hc        1 MOL     -0.024103
    159 N14        -4.3550   -2.0110    1.2700 n         1 MOL     -0.003342
    160 C53        -3.5010   -2.3550    2.3610 c3        1 MOL     -0.554738
    161 C54        -4.1150   -1.8680    3.6300 c         1 MOL      0.668997
    162 O24        -4.0600   -2.5860    4.6070 o         1 MOL     -0.591812
    163 C55        -2.1130   -1.7100    2.1690 c3        1 MOL      0.263657
    164 C56        -1.4390   -2.2010    0.8570 c3        1 MOL      0.024300
    165 C57        -0.2000   -1.3350    0.4660 c         1 MOL      0.805511
    166 O25         0.5890   -1.7670   -0.3850 o         1 MOL     -0.764032
    167 O26        -0.0230   -0.2190    0.9160 o         1 MOL     -0.764032
    168 H71        -4.1540   -1.1340    0.8060 hn        1 MOL      0.077994
    169 H72        -3.3920   -3.4370    2.3170 h1        1 MOL      0.194001
    170 H73        -1.4770   -2.0030    3.0040 hc        1 MOL     -0.043799
    171 H74        -2.2120   -0.6300    2.1070 hc        1 MOL     -0.043799
    172 H75        -2.1630   -1.9830    0.0620 hc        1 MOL     -0.049359
    173 H76        -1.1530   -3.2500    0.9460 hc        1 MOL     -0.049359
    174 N15        -4.6130   -0.6310    3.6600 n         1 MOL     -0.183872
    175 C58        -5.1900    0.0170    4.8730 c3        1 MOL     -0.347244
    176 H77        -6.0830   -0.5240    5.1840 h1        1 MOL      0.116285
    177 H78        -4.4570   -0.0010    5.6790 h1        1 MOL      0.116285
    178 H79        -5.4540    1.0500    4.6430 h1        1 MOL      0.116285
    179 H80        -4.7560   -0.0590    2.8430 hn        1 MOL      0.180297
    180 Ca1         2.5080   -0.0100    0.0170 Ca        1 MOL      1.688145
    181 O27         2.1010   -0.4050    2.7690 oh        1 MOL     -0.827593
    182 H81         2.5820    0.2570    3.2690 ho        1 MOL      0.393957
    183 H82         2.1110   -1.1810    3.3240 ho        1 MOL      0.393957
    184 O28         4.7140    0.3730    1.3290 oh        1 MOL     -0.827593
    185 H83         4.5600    0.6580    2.2300 ho        1 MOL      0.393957
    186 H84         5.0190   -0.5320    1.4060 ho        1 MOL      0.393957
    187 O29         1.1400    1.6050   -1.7110 oh        1 MOL     -0.827593
    188 H85         1.8230    2.1830   -2.0480 ho        1 MOL      0.393957
    189 H86         0.9280    1.0250   -2.4370 ho        1 MOL      0.393957
@<TRIPOS>BOND
     1    1    2 1   
     2    1    4 1   
     3    1    5 1   
     4    1    6 1   
     5    2    3 2   
     6    2    7 1   
     7    7    8 1   
     8    7   15 1   
     9    8    9 1   
    10    8   11 1   
    11    8   16 1   
    12    9   10 2   
    13    9   19 1   
    14   11   12 1   
    15   11   17 1   
    16   11   18 1   
    17   12   13 1   
    18   12   14 1   
    19   19   20 1   
    20   19   27 1   
    21   20   21 1   
    22   20   23 1   
    23   20   28 1   
    24   21   22 2   
    25   21   38 1   
    26   23   24 1   
    27   23   25 1   
    28   23   29 1   
    29   24   26 1   
    30   24   30 1   
    31   24   31 1   
    32   25   32 1   
    33   25   33 1   
    34   25   34 1   
    35   26   35 1   
    36   26   36 1   
    37   26   37 1   
    38   38   39 1   
    39   38   46 1   
    40   39   40 1   
    41   39   42 1   
    42   39   47 1   
    43   40   41 2   
    44   40   50 1   
    45   42   43 1   
    46   42   48 1   
    47   42   49 1   
    48   43   44 1   
    49   43   45 1   
    50   50   51 1   
    51   50   54 1   
    52   51   52 1   
    53   51   55 1   
    54   51   56 1   
    55   52   53 2   
    56   52   57 1   
    57   57   58 1   
    58   57   65 1   
    59   58   59 1   
    60   58   61 1   
    61   58   66 1   
    62   59   60 2   
    63   59   69 1   
    64   61   62 1   
    65   61   67 1   
    66   61   68 1   
    67   62   63 1   
    68   62   64 1   
    69   69   70 1   
    70   69   73 1   
    71   70   71 1   
    72   70   74 1   
    73   70   75 1   
    74   71   72 2   
    75   71   76 1   
    76   76   77 1   
    77   76   85 1   
    78   77   78 1   
    79   77   80 1   
    80   77   86 1   
    81   78   79 2   
    82   78   93 1   
    83   80   81 1   
    84   80   87 1   
    85   80   88 1   
    86   81   82 1   
    87   81   89 1   
    88   81   90 1   
    89   82   83 1   
    90   82   84 2   
    91   83   91 1   
    92   83   92 1   
    93   93   94 1   
    94   93  100 1   
    95   94   95 1   
    96   94   97 1   
    97   94  101 1   
    98   95   96 2   
    99   95  109 1   
   100   97   98 1   
   101   97   99 1   
   102   97  102 1   
   103   98  103 1   
   104   98  104 1   
   105   98  105 1   
   106   99  106 1   
   107   99  107 1   
   108   99  108 1   
   109  109  110 1   
   110  109  117 1   
   111  110  111 1   
   112  110  113 1   
   113  110  118 1   
   114  111  112 2   
   115  111  123 1   
   116  113  114 1   
   117  113  119 1   
   118  113  120 1   
   119  114  115 1   
   120  114  116 2   
   121  115  121 1   
   122  115  122 1   
   123  123  124 1   
   124  123  135 1   
   125  124  125 1   
   126  124  127 1   
   127  124  136 1   
   128  125  126 2   
   129  125  144 1   
   130  127  128 1   
   131  127  137 1   
   132  127  138 1   
   133  128  129 ar  
   134  128  130 ar  
   135  129  131 ar  
   136  129  139 1   
   137  130  132 ar  
   138  130  140 1   
   139  131  133 ar  
   140  131  141 1   
   141  132  133 ar  
   142  132  142 1   
   143  133  134 1   
   144  134  143 1   
   145  144  145 1   
   146  144  153 1   
   147  145  146 1   
   148  145  148 1   
   149  145  154 1   
   150  146  147 2   
   151  146  159 1   
   152  148  149 1   
   153  148  155 1   
   154  148  156 1   
   155  149  150 1   
   156  149  157 1   
   157  149  158 1   
   158  150  151 1   
   159  150  152 1   
   160  159  160 1   
   161  159  168 1   
   162  160  161 1   
   163  160  163 1   
   164  160  169 1   
   165  161  162 2   
   166  161  174 1   
   167  163  164 1   
   168  163  170 1   
   169  163  171 1   
   170  164  165 1   
   171  164  172 1   
   172  164  173 1   
   173  165  166 1   
   174  165  167 1   
   175  174  175 1   
   176  174  179 1   
   177  175  176 1   
   178  175  177 1   
   179  175  178 1   
   180  181  182 1   
   181  181  183 1   
   182  184  185 1   
   183  184  186 1   
   184  187  188 1   
   185  187  189 1   
@<TRIPOS>SUBSTRUCTURE
     1 MOL         1 TEMP              0 ****  ****    0 ROOT
