@<TRIPOS>MOLECULE
MOL
  189   185     1     0     0
SMALL
resp


@<TRIPOS>ATOM
      1 C1         -0.5900    2.4900    5.6440 c3        1 MOL     -0.369868
      2 C2         -0.9030    2.2890    4.1740 c         1 MOL      0.772080
      3 O1         -0.0250    2.5530    3.3540 o         1 MOL     -0.590495
      4 H1         -1.2720    1.8880    6.2450 hc        1 MOL      0.090339
      5 H2          0.4360    2.1850    5.8420 hc        1 MOL      0.090339
      6 H3         -0.7130    3.5420    5.9010 hc        1 MOL      0.090339
      7 N1         -2.0660    1.7410    3.8740 n         1 MOL     -0.650078
      8 C3         -2.5370    1.5660    2.5030 c3        1 MOL      0.090875
      9 C4         -2.9560    2.8950    1.8820 c         1 MOL      0.513012
     10 O2         -3.6720    3.6670    2.4900 o         1 MOL     -0.591375
     11 C5         -3.6620    0.5070    2.4160 c3        1 MOL      0.208553
     12 C6         -4.2590    0.4000    0.9970 c         1 MOL      0.541011
     13 O3         -5.4580    0.7400    0.9170 o         1 MOL     -0.659190
     14 O4         -3.5170    0.2840   -0.0540 o         1 MOL     -0.659190
     15 H4         -2.6930    1.4400    4.6120 hn        1 MOL      0.332471
     16 H5         -1.6700    1.2360    1.9210 h1        1 MOL      0.059434
     17 H6         -4.4860    0.7330    3.0800 hc        1 MOL     -0.060113
     18 H7         -3.2860   -0.4700    2.7320 hc        1 MOL     -0.060113
     19 N2         -2.4560    3.1450    0.6960 n         1 MOL      0.021624
     20 C7         -2.4430    4.4890    0.0990 c3        1 MOL      0.118730
     21 C8         -3.3370    4.6310   -1.1380 c         1 MOL      0.405192
     22 O5         -4.2580    5.4740   -1.1460 o         1 MOL     -0.558090
     23 C9         -0.9760    4.9270   -0.2390 c3        1 MOL     -0.139301
     24 C10         0.0120    5.0210    0.8590 c3        1 MOL      0.030960
     25 C11        -0.4440    5.9060    2.0340 c3        1 MOL     -0.151984
     26 C12         0.6280    6.0700    3.1380 c3        1 MOL      0.134232
     27 N3          0.1910    7.0200    4.2190 n4        1 MOL     -0.394016
     28 H8         -1.9730    2.4280    0.1720 hn        1 MOL     -0.001397
     29 H9         -2.8750    5.1750    0.8310 h1        1 MOL     -0.001031
     30 H10        -1.0260    5.9340   -0.6670 hc        1 MOL      0.033981
     31 H11        -0.6330    4.2530   -1.0250 hc        1 MOL      0.033981
     32 H12         0.9980    5.3180    0.4840 hc        1 MOL      0.030359
     33 H13         0.1680    4.0040    1.2210 hc        1 MOL      0.030359
     34 H14        -1.2930    5.4750    2.5490 hc        1 MOL      0.057193
     35 H15        -0.6500    6.8880    1.6010 hc        1 MOL      0.057193
     36 H16         1.6000    6.4430    2.8150 hx        1 MOL      0.063687
     37 H17         0.7730    5.1260    3.6490 hx        1 MOL      0.063687
     38 H18         0.8990    7.0850    4.9470 hn        1 MOL      0.322400
     39 H19         0.1570    7.9860    3.9290 hn        1 MOL      0.322400
     40 H20        -0.6570    6.6980    4.6650 hn        1 MOL      0.322400
     41 N4         -3.2710    3.6790   -2.0420 n         1 MOL     -0.196400
     42 C13        -4.0020    3.5540   -3.3130 c3        1 MOL     -0.254183
     43 C14        -5.3430    2.7180   -3.1310 c         1 MOL      0.546904
     44 O6         -5.9950    2.4500   -4.1230 o         1 MOL     -0.522849
     45 C15        -3.0830    3.1060   -4.4210 c3        1 MOL     -0.017111
     46 C16        -2.3340    1.8070   -4.2440 c         1 MOL      0.769753
     47 O7         -2.4010    1.1970   -3.1280 o         1 MOL     -0.731550
     48 O8         -1.5700    1.4270   -5.1850 o         1 MOL     -0.731550
     49 H21        -2.7270    2.8470   -1.8760 hn        1 MOL      0.166253
     50 H22        -4.2560    4.5800   -3.5870 h1        1 MOL      0.144405
     51 H23        -2.2220    3.7680   -4.5710 hc        1 MOL      0.025253
     52 H24        -3.5530    3.0990   -5.4070 hc        1 MOL      0.025253
     53 N5         -5.7020    2.3830   -1.8560 n         1 MOL     -0.276323
     54 C17        -7.0220    1.9560   -1.3320 c3        1 MOL     -0.317951
     55 C18        -7.3860    0.4990   -1.5430 c         1 MOL      0.531766
     56 O9         -8.4750    0.1170   -1.0970 o         1 MOL     -0.611624
     57 H25        -4.9770    2.5880   -1.1850 hn        1 MOL      0.249707
     58 H26        -7.7400    2.5340   -1.9280 h1        1 MOL      0.164667
     59 H27        -7.2120    2.2310   -0.2890 h1        1 MOL      0.164667
     60 N6         -6.6160   -0.2670   -2.1840 n         1 MOL     -0.230856
     61 C19        -6.8640   -1.7380   -2.2240 c3        1 MOL     -0.012051
     62 C20        -6.8950   -2.4970   -0.8420 c         1 MOL      0.441376
     63 O10        -7.2640   -3.6890   -0.7710 o         1 MOL     -0.538916
     64 C21        -5.8570   -2.3260   -3.1960 c3        1 MOL     -0.215388
     65 C22        -4.3580   -2.0890   -2.8530 c         1 MOL      0.671108
     66 O11        -3.9850   -2.1360   -1.6570 o         1 MOL     -0.646650
     67 O12        -3.4510   -1.8440   -3.7270 o         1 MOL     -0.646650
     68 H28        -5.7380    0.1470   -2.4590 hn        1 MOL      0.185485
     69 H29        -7.8570   -1.8590   -2.6410 h1        1 MOL      0.105459
     70 H30        -5.8890   -1.8430   -4.1680 hc        1 MOL      0.066289
     71 H31        -6.0440   -3.3950   -3.3280 hc        1 MOL      0.066289
     72 N7         -6.5750   -1.7690    0.2400 n         1 MOL     -0.141309
     73 C23        -6.6400   -2.3950    1.5600 c3        1 MOL     -0.257712
     74 C24        -5.5170   -3.3910    1.8750 c         1 MOL      0.498281
     75 O13        -5.6770   -4.2430    2.7410 o         1 MOL     -0.557813
     76 H32        -6.2750   -0.8070    0.1950 hn        1 MOL      0.285380
     77 H33        -7.5630   -2.9820    1.5850 h1        1 MOL      0.123009
     78 H34        -6.7440   -1.6480    2.3560 h1        1 MOL      0.123009
     79 N8         -4.3830   -3.2970    1.1830 n         1 MOL      0.055705
     80 C25        -3.1610   -4.0300    1.6310 c3        1 MOL     -0.401721
     81 C26        -1.9030   -3.1360    1.5070 c         1 MOL      0.937217
     82 O14        -1.8160   -2.2170    0.6820 o         1 MOL     -0.757150
     83 C27        -2.8530   -5.2510    0.7520 c3        1 MOL      0.375636
     84 C28        -3.9150   -6.3650    0.8570 c3        1 MOL     -0.470923
     85 O15        -2.6730   -4.8480   -0.5910 oh        1 MOL     -0.611576
     86 H35        -4.3390   -2.6280    0.4340 hn        1 MOL     -0.047657
     87 H36        -3.1270   -4.2920    2.6920 h1        1 MOL      0.123677
     88 H37        -1.9220   -5.7490    1.0400 h1        1 MOL      0.038142
     89 H38        -3.4240   -4.3080   -0.8800 ho        1 MOL      0.408126
     90 H39        -4.8330   -6.1160    0.3350 hc        1 MOL      0.130353
     91 H40        -3.5620   -7.2580    0.3440 hc        1 MOL      0.130353
     92 H41        -4.1910   -6.6660    1.8690 hc        1 MOL      0.130353
     93 N9         -0.8930   -3.3370    2.3540 n         1 MOL     -0.714611
     94 C29         0.3280   -2.5430    2.2530 c3        1 MOL     -0.005985
     95 C30         1.4100   -3.2930    1.3950 c         1 MOL      0.497640
     96 O16         1.6170   -4.4680    1.5380 o         1 MOL     -0.542298
     97 C31         0.8410   -2.3450    3.6610 c3        1 MOL      0.411884
     98 C32        -0.1670   -2.2600    4.8370 c3        1 MOL      0.057517
     99 C33         1.6300   -1.0180    3.6670 c3        1 MOL     -0.914420
    100 C34         0.3580   -2.4670    6.2550 c3        1 MOL     -0.075227
    101 H42        -0.8700   -4.1530    2.9390 hn        1 MOL      0.327678
    102 H43         0.1860   -1.5530    1.8250 h1        1 MOL      0.163371
    103 H44         1.4840   -3.1860    3.9170 hc        1 MOL     -0.055702
    104 H45        -0.9780   -2.9760    4.6840 hc        1 MOL     -0.017593
    105 H46        -0.6800   -1.3030    4.7350 hc        1 MOL     -0.017593
    106 H47         2.4470   -1.2570    2.9700 hc        1 MOL      0.203208
    107 H48         1.1320   -0.1600    3.2180 hc        1 MOL      0.203208
    108 H49         2.0330   -0.7830    4.6520 hc        1 MOL      0.203208
    109 H50         0.4340   -3.5330    6.4940 hc        1 MOL      0.014899
    110 H51         1.3120   -1.9520    6.3550 hc        1 MOL      0.014899
    111 H52        -0.3020   -2.0260    7.0070 hc        1 MOL      0.014899
    112 N10         2.1510   -2.4520    0.6470 n         1 MOL     -0.203251
    113 C35         3.4530   -2.8150    0.0000 c3        1 MOL      0.075528
    114 C36         4.6520   -2.4170    0.7800 c         1 MOL      0.324183
    115 O17         4.6840   -1.5530    1.6940 o         1 MOL     -0.373967
    116 C37         3.4030   -2.2600   -1.4070 c3        1 MOL      0.252545
    117 C38         2.3830   -2.9310   -2.3010 c3        1 MOL     -0.096035
    118 O18         3.0810   -0.8720   -1.3390 oh        1 MOL     -0.543558
    119 H53         1.9130   -1.4900    0.5090 hn        1 MOL      0.179499
    120 H54         3.4900   -3.8840   -0.1730 h1        1 MOL      0.047153
    121 H55         4.4080   -2.4260   -1.7900 h1        1 MOL     -0.027928
    122 H56         2.1470   -0.8020   -1.0910 ho        1 MOL      0.301460
    123 H57         2.7500   -3.9590   -2.3670 hc        1 MOL      0.023268
    124 H58         1.3820   -2.9020   -1.8690 hc        1 MOL      0.023268
    125 H59         2.4730   -2.4700   -3.2830 hc        1 MOL      0.023268
    126 N11         5.8120   -2.9130    0.2650 n         1 MOL     -0.405225
    127 C39         7.2500   -2.4450    0.6800 c3        1 MOL      0.104386
    128 C40         7.3700   -0.9490    0.4550 c         1 MOL      0.145157
    129 O19         7.9610   -0.3550    1.3290 o         1 MOL     -0.480096
    130 C41         8.4700   -3.0900   -0.0730 c3        1 MOL      0.247806
    131 C42         8.7340   -4.5430    0.2120 c3        1 MOL     -0.528459
    132 O20         8.3250   -3.0820   -1.4390 oh        1 MOL     -0.612914
    133 H60         5.8200   -3.6890   -0.3880 hn        1 MOL      0.276506
    134 H61         7.4160   -2.5900    1.7470 h1        1 MOL      0.112467
    135 H62         9.3870   -2.5790    0.2360 h1        1 MOL      0.056320
    136 H63         9.0850   -3.6500   -1.5850 ho        1 MOL      0.408580
    137 H64         8.7170   -4.6620    1.2900 hc        1 MOL      0.147123
    138 H65         7.9660   -5.2240   -0.1590 hc        1 MOL      0.147123
    139 H66         9.6240   -4.7710   -0.3790 hc        1 MOL      0.147123
    140 N12         6.8910   -0.3160   -0.6270 n         1 MOL      0.024396
    141 C43         7.1710    1.1290   -1.0020 c3        1 MOL      0.127357
    142 C44         6.1190    2.0730   -0.2840 c         1 MOL      0.358883
    143 O21         6.5020    3.0430    0.3100 o         1 MOL     -0.478493
    144 C45         7.1850    1.2500   -2.4720 c3        1 MOL     -0.270250
    145 C46         8.5150    0.7040   -3.0340 c3        1 MOL      0.141215
    146 C47         8.5120    0.6320   -4.5930 c3        1 MOL     -0.077258
    147 C48         9.8050    0.4180   -5.3880 c3        1 MOL     -0.010393
    148 N13        10.5550    1.6650   -5.1730 n4        1 MOL     -0.358244
    149 H67         6.5900   -0.9560   -1.3590 hn        1 MOL      0.208856
    150 H68         8.1330    1.4690   -0.6200 h1        1 MOL      0.062516
    151 H69         7.3700    2.2940   -2.7160 hc        1 MOL      0.075706
    152 H70         6.2920    0.8370   -2.9500 hc        1 MOL      0.075706
    153 H71         8.7070   -0.2770   -2.5870 hc        1 MOL     -0.030837
    154 H72         9.2780    1.3620   -2.6270 hc        1 MOL     -0.030837
    155 H73         8.1020    1.5560   -5.0190 hc        1 MOL      0.056723
    156 H74         7.7900   -0.1460   -4.8250 hc        1 MOL      0.056723
    157 H75         9.5930    0.3240   -6.4490 hx        1 MOL      0.100847
    158 H76        10.2570   -0.4770   -4.9800 hx        1 MOL      0.100847
    159 H77        10.8860    1.6870   -4.2180 hn        1 MOL      0.310722
    160 H78        11.2240    1.6590   -5.9300 hn        1 MOL      0.310722
    161 H79         9.9560    2.4760   -5.2800 hn        1 MOL      0.310722
    162 N14         4.8110    1.6650   -0.1130 n         1 MOL     -0.146402
    163 C49         3.9230    2.3300    0.8560 c3        1 MOL     -0.244330
    164 C50         4.4600    2.3420    2.3040 c         1 MOL      0.624302
    165 O22         4.3930    3.3770    2.9760 o         1 MOL     -0.631898
    166 C51         2.5550    1.7270    0.7910 c3        1 MOL      0.086932
    167 C52         1.7820    1.8820   -0.4450 c3        1 MOL     -0.035007
    168 C53         0.5640    0.8800   -0.4300 c         1 MOL      0.664939
    169 O23         0.6650   -0.3360   -0.6490 o         1 MOL     -0.695299
    170 O24        -0.6030    1.3500   -0.5790 o         1 MOL     -0.695299
    171 H80         4.4620    0.8070   -0.5050 hn        1 MOL      0.073133
    172 H81         3.9130    3.3960    0.6230 h1        1 MOL      0.103414
    173 H82         1.9950    2.0590    1.6620 hc        1 MOL     -0.007920
    174 H83         2.6440    0.6460    0.8930 hc        1 MOL     -0.007920
    175 H84         2.4440    1.6770   -1.2830 hc        1 MOL      0.024250
    176 H85         1.4600    2.9240   -0.4870 hc        1 MOL      0.024250
    177 N15         4.7260    1.2310    2.8630 n         1 MOL     -0.194874
    178 C54         5.4800    1.1420    4.1600 c3        1 MOL     -0.166920
    179 H86         4.9270    0.5130    4.8580 h1        1 MOL      0.085235
    180 H87         6.4640    0.7080    3.9810 h1        1 MOL      0.085235
    181 H88         5.5950    2.1410    4.5830 h1        1 MOL      0.085235
    182 H89         4.5830    0.3440    2.3870 hn        1 MOL      0.208980
    183 Ca1        -1.8040   -0.7800   -1.6130 Ca        1 MOL      1.767047
    184 O25        -1.2300   -3.2980   -2.4530 oh        1 MOL     -0.795723
    185 H90        -1.4940   -3.8650   -1.7300 ho        1 MOL      0.384968
    186 H91        -1.0310   -3.9050   -3.1670 ho        1 MOL      0.384968
    187 O26        -0.3750   -0.7570   -3.9740 oh        1 MOL     -0.795723
    188 H92         0.4740   -0.7130   -4.4100 ho        1 MOL      0.384968
    189 H93        -0.9230   -0.1360   -4.4460 ho        1 MOL      0.384968
@<TRIPOS>BOND
     1    1    2 1   
     2    1    4 1   
     3    1    5 1   
     4    1    6 1   
     5    2    3 2   
     6    2    7 1   
     7    7    8 1   
     8    7   15 1   
     9    8    9 1   
    10    8   11 1   
    11    8   16 1   
    12    9   10 2   
    13    9   19 1   
    14   11   12 1   
    15   11   17 1   
    16   11   18 1   
    17   12   13 1   
    18   12   14 1   
    19   19   20 1   
    20   19   28 1   
    21   20   21 1   
    22   20   23 1   
    23   20   29 1   
    24   21   22 2   
    25   21   41 1   
    26   23   24 1   
    27   23   30 1   
    28   23   31 1   
    29   24   25 1   
    30   24   32 1   
    31   24   33 1   
    32   25   26 1   
    33   25   34 1   
    34   25   35 1   
    35   26   27 1   
    36   26   36 1   
    37   26   37 1   
    38   27   38 1   
    39   27   39 1   
    40   27   40 1   
    41   41   42 1   
    42   41   49 1   
    43   42   43 1   
    44   42   45 1   
    45   42   50 1   
    46   43   44 2   
    47   43   53 1   
    48   45   46 1   
    49   45   51 1   
    50   45   52 1   
    51   46   47 1   
    52   46   48 1   
    53   53   54 1   
    54   53   57 1   
    55   54   55 1   
    56   54   58 1   
    57   54   59 1   
    58   55   56 2   
    59   55   60 1   
    60   60   61 1   
    61   60   68 1   
    62   61   62 1   
    63   61   64 1   
    64   61   69 1   
    65   62   63 2   
    66   62   72 1   
    67   64   65 1   
    68   64   70 1   
    69   64   71 1   
    70   65   66 1   
    71   65   67 1   
    72   72   73 1   
    73   72   76 1   
    74   73   74 1   
    75   73   77 1   
    76   73   78 1   
    77   74   75 2   
    78   74   79 1   
    79   79   80 1   
    80   79   86 1   
    81   80   81 1   
    82   80   83 1   
    83   80   87 1   
    84   81   82 2   
    85   81   93 1   
    86   83   84 1   
    87   83   85 1   
    88   83   88 1   
    89   84   90 1   
    90   84   91 1   
    91   84   92 1   
    92   85   89 1   
    93   93   94 1   
    94   93  101 1   
    95   94   95 1   
    96   94   97 1   
    97   94  102 1   
    98   95   96 2   
    99   95  112 1   
   100   97   98 1   
   101   97   99 1   
   102   97  103 1   
   103   98  100 1   
   104   98  104 1   
   105   98  105 1   
   106   99  106 1   
   107   99  107 1   
   108   99  108 1   
   109  100  109 1   
   110  100  110 1   
   111  100  111 1   
   112  112  113 1   
   113  112  119 1   
   114  113  114 1   
   115  113  116 1   
   116  113  120 1   
   117  114  115 2   
   118  114  126 1   
   119  116  117 1   
   120  116  118 1   
   121  116  121 1   
   122  117  123 1   
   123  117  124 1   
   124  117  125 1   
   125  118  122 1   
   126  126  127 1   
   127  126  133 1   
   128  127  128 1   
   129  127  130 1   
   130  127  134 1   
   131  128  129 2   
   132  128  140 1   
   133  130  131 1   
   134  130  132 1   
   135  130  135 1   
   136  131  137 1   
   137  131  138 1   
   138  131  139 1   
   139  132  136 1   
   140  140  141 1   
   141  140  149 1   
   142  141  142 1   
   143  141  144 1   
   144  141  150 1   
   145  142  143 2   
   146  142  162 1   
   147  144  145 1   
   148  144  151 1   
   149  144  152 1   
   150  145  146 1   
   151  145  153 1   
   152  145  154 1   
   153  146  147 1   
   154  146  155 1   
   155  146  156 1   
   156  147  148 1   
   157  147  157 1   
   158  147  158 1   
   159  148  159 1   
   160  148  160 1   
   161  148  161 1   
   162  162  163 1   
   163  162  171 1   
   164  163  164 1   
   165  163  166 1   
   166  163  172 1   
   167  164  165 2   
   168  164  177 1   
   169  166  167 1   
   170  166  173 1   
   171  166  174 1   
   172  167  168 1   
   173  167  175 1   
   174  167  176 1   
   175  168  169 1   
   176  168  170 1   
   177  177  178 1   
   178  177  182 1   
   179  178  179 1   
   180  178  180 1   
   181  178  181 1   
   182  184  185 1   
   183  184  186 1   
   184  187  188 1   
   185  187  189 1   
@<TRIPOS>SUBSTRUCTURE
     1 MOL         1 TEMP              0 ****  ****    0 ROOT
