@<TRIPOS>MOLECULE
MOL
  189   185     1     0     0
SMALL
resp


@<TRIPOS>ATOM
      1 C1         -0.3170   -4.4290    5.5680 c3        1 MOL     -0.422850
      2 C2          0.4220   -3.8400    4.3700 c         1 MOL      0.752347
      3 O1          0.4590   -2.6400    4.2320 o         1 MOL     -0.615322
      4 H1         -1.3230   -4.7190    5.2670 hc        1 MOL      0.104083
      5 H2          0.2190   -5.3050    5.9310 hc        1 MOL      0.104083
      6 H3         -0.3760   -3.6840    6.3620 hc        1 MOL      0.104083
      7 N1          0.9540   -4.6830    3.5000 n         1 MOL     -0.591577
      8 C3          1.6250   -4.3240    2.2900 c3        1 MOL      0.302570
      9 C4          1.2310   -5.2730    1.1150 c         1 MOL      0.464626
     10 O2          1.0470   -6.4680    1.3910 o         1 MOL     -0.580086
     11 C5          3.1400   -4.2650    2.5590 c3        1 MOL     -0.228274
     12 C6          3.8730   -3.2700    1.7010 c         1 MOL      0.871127
     13 O3          5.0580   -3.1660    2.0190 o         1 MOL     -0.711386
     14 O4          3.3070   -2.7890    0.6790 o         1 MOL     -0.711386
     15 H4          0.8170   -5.6560    3.7030 hn        1 MOL      0.291495
     16 H5          1.2140   -3.3570    1.9970 h1        1 MOL     -0.068529
     17 H6          3.5170   -5.2410    2.2810 hc        1 MOL      0.028973
     18 H7          3.3710   -3.9700    3.5880 hc        1 MOL      0.028973
     19 N2          1.0350   -4.7140   -0.0820 n         1 MOL     -0.255365
     20 C7          0.5670   -5.4220   -1.2870 c3        1 MOL     -0.336054
     21 C8          1.6370   -5.2560   -2.3700 c         1 MOL      0.695439
     22 O5          1.6210   -6.0100   -3.3380 o         1 MOL     -0.627454
     23 C9         -0.8730   -4.9170   -1.6520 c3        1 MOL      0.532922
     24 C10        -1.8080   -5.6660   -0.6750 c3        1 MOL     -0.195760
     25 C11        -1.4670   -4.8740   -3.0950 c3        1 MOL     -0.313452
     26 C12        -3.2660   -5.2510   -0.6280 c3        1 MOL     -0.033232
     27 H8          1.0060   -3.7060   -0.1150 hn        1 MOL      0.253315
     28 H9          0.5130   -6.4280   -0.8940 h1        1 MOL      0.111703
     29 H10        -0.8750   -3.8470   -1.4040 hc        1 MOL     -0.080557
     30 H11        -1.4810   -5.3840    0.3260 hc        1 MOL      0.026019
     31 H12        -1.5970   -6.7190   -0.8370 hc        1 MOL      0.026019
     32 H13        -1.4690   -5.9160   -3.3960 hc        1 MOL      0.061248
     33 H14        -2.4670   -4.4340   -3.0420 hc        1 MOL      0.061248
     34 H15        -0.7720   -4.2640   -3.6830 hc        1 MOL      0.061248
     35 H16        -3.3060   -4.2270   -0.2580 hc        1 MOL      0.022119
     36 H17        -3.7460   -5.4830   -1.5860 hc        1 MOL      0.022119
     37 H18        -3.7160   -5.8650    0.1490 hc        1 MOL      0.022119
     38 N3          2.4790   -4.2680   -2.3540 n         1 MOL     -0.513983
     39 C13         3.3920   -3.8910   -3.4700 c3        1 MOL      0.147963
     40 C14         4.7680   -3.4240   -3.0480 c         1 MOL      0.378312
     41 O6          5.5530   -3.2750   -3.9590 o         1 MOL     -0.542306
     42 C15         2.6930   -2.7450   -4.3090 c3        1 MOL     -0.261317
     43 C16         2.2570   -1.6190   -3.4040 c         1 MOL      0.840522
     44 O7          2.8560   -1.3460   -2.3330 o         1 MOL     -0.727759
     45 O8          1.2920   -0.9160   -3.7110 o         1 MOL     -0.727759
     46 H19         2.3300   -3.5730   -1.6320 hn        1 MOL      0.234850
     47 H20         3.5750   -4.7660   -4.0970 h1        1 MOL      0.086009
     48 H21         1.8230   -3.1020   -4.8540 hc        1 MOL      0.057651
     49 H22         3.3830   -2.2840   -5.0180 hc        1 MOL      0.057651
     50 N4          5.0840   -3.2250   -1.7470 n         1 MOL     -0.201985
     51 C17         6.3980   -2.7820   -1.2060 c3        1 MOL     -0.235813
     52 C18         6.9280   -1.3620   -1.6600 c         1 MOL      0.558790
     53 O9          8.1050   -1.1570   -1.5230 o         1 MOL     -0.614299
     54 H23         4.4360   -3.3810   -0.9820 hn        1 MOL      0.139830
     55 H24         7.1810   -3.4760   -1.4830 h1        1 MOL      0.119166
     56 H25         6.2870   -2.7380   -0.1180 h1        1 MOL      0.119166
     57 N5          6.0880   -0.4470   -2.1170 n         1 MOL     -0.247963
     58 C19         6.4680    0.9300   -2.3860 c3        1 MOL      0.003946
     59 C20         6.9010    1.8730   -1.2300 c         1 MOL      0.473526
     60 O10         7.4410    2.9730   -1.4640 o         1 MOL     -0.566932
     61 C21         5.3370    1.6610   -3.1240 c3        1 MOL     -0.253875
     62 C22         4.0200    1.7370   -2.3100 c         1 MOL      0.846704
     63 O11         3.8710    1.3520   -1.1130 o         1 MOL     -0.712403
     64 O12         2.9670    2.2790   -2.8510 o         1 MOL     -0.712403
     65 H26         5.1300   -0.6960   -1.9340 hn        1 MOL      0.194878
     66 H27         7.3210    0.9470   -3.0570 h1        1 MOL      0.101100
     67 H28         5.2230    1.1490   -4.0820 hc        1 MOL      0.067202
     68 H29         5.6650    2.6830   -3.3120 hc        1 MOL      0.067202
     69 N6          6.7920    1.4520    0.0370 n         1 MOL     -0.208862
     70 C23         7.1810    2.2780    1.1590 c3        1 MOL     -0.138781
     71 C24         6.0910    3.2710    1.6320 c         1 MOL      0.500056
     72 O13         6.4480    4.1750    2.4380 o         1 MOL     -0.615834
     73 H30         6.1690    0.6920    0.2300 hn        1 MOL      0.184214
     74 H31         8.0300    2.9170    0.9110 h1        1 MOL      0.091267
     75 H32         7.4600    1.6910    2.0310 h1        1 MOL      0.091267
     76 N7          4.8560    3.2010    1.1980 n         1 MOL     -0.367958
     77 C25         3.7280    4.0510    1.5180 c3        1 MOL      0.301022
     78 C26         2.4050    3.2460    1.7830 c         1 MOL      0.382922
     79 O14         2.3430    2.0720    1.3370 o         1 MOL     -0.481368
     80 C27         3.5480    5.1330    0.4820 c3        1 MOL     -0.218500
     81 C28         4.7360    6.1170    0.4560 c3        1 MOL     -0.148325
     82 C29         4.7080    7.2100   -0.5710 c         1 MOL      0.700212
     83 N8          5.8260    7.6830   -1.0630 n         1 MOL     -0.791710
     84 O15         3.7580    7.7100   -1.0350 o         1 MOL     -0.574822
     85 H33         4.6730    2.4740    0.5280 hn        1 MOL      0.188590
     86 H34         3.9840    4.5520    2.4510 h1        1 MOL      0.002621
     87 H35         2.7020    5.6510    0.9440 hc        1 MOL      0.082164
     88 H36         3.4070    4.6570   -0.4840 hc        1 MOL      0.082164
     89 H37         5.6310    5.5380    0.2130 hc        1 MOL      0.069818
     90 H38         4.9650    6.5410    1.4310 hc        1 MOL      0.069818
     91 H39         6.7500    7.4350   -0.7250 hn        1 MOL      0.334755
     92 H40         5.7520    8.4210   -1.7540 hn        1 MOL      0.334755
     93 N9          1.3680    3.8000    2.4550 n         1 MOL     -0.489495
     94 C30         0.1510    3.0060    2.7260 c3        1 MOL     -0.045259
     95 C31        -0.9130    3.4550    1.6690 c         1 MOL      0.537358
     96 O16        -1.1750    4.6870    1.4720 o         1 MOL     -0.602609
     97 C32        -0.2140    3.0540    4.2040 c3        1 MOL      0.118084
     98 C33        -1.5660    2.2700    4.5170 c3        1 MOL     -0.294089
     99 C34         0.8200    2.3940    5.0590 c3        1 MOL     -0.294089
    100 H41         1.3000    4.8060    2.5700 hn        1 MOL      0.328447
    101 H42         0.3730    1.9710    2.4880 h1        1 MOL      0.249670
    102 H43        -0.3330    4.0820    4.5400 hc        1 MOL      0.003335
    103 H44        -2.4040    2.8720    4.1720 hc        1 MOL      0.067079
    104 H45        -1.6410    1.2700    4.0790 hc        1 MOL      0.067079
    105 H46        -1.7410    2.0560    5.5790 hc        1 MOL      0.067079
    106 H47         0.6480    2.5860    6.1200 hc        1 MOL      0.067079
    107 H48         0.7580    1.3300    4.9070 hc        1 MOL      0.067079
    108 H49         1.8140    2.7300    4.7520 hc        1 MOL      0.067079
    109 N10        -1.3510    2.5150    0.8830 n         1 MOL     -0.221711
    110 C35        -2.5450    2.7400    0.0450 c3        1 MOL     -0.052585
    111 C36        -3.8090    2.7040    0.8230 c         1 MOL      0.310624
    112 O17        -3.8280    2.2420    1.9340 o         1 MOL     -0.385696
    113 C37        -2.4860    1.5650   -1.0430 c3        1 MOL     -0.271546
    114 C38        -3.4090    1.8080   -2.2200 c         1 MOL      0.690211
    115 N11        -3.4080    2.9890   -2.8310 n         1 MOL     -0.764826
    116 O18        -4.2020    0.9220   -2.5550 o         1 MOL     -0.618260
    117 H50        -0.9110    1.6050    0.9240 hn        1 MOL      0.153959
    118 H51        -2.4390    3.7400   -0.3730 h1        1 MOL      0.081697
    119 H52        -2.7670    0.6480   -0.5360 hc        1 MOL      0.141648
    120 H53        -1.5080    1.4970   -1.5180 hc        1 MOL      0.141648
    121 H54        -2.7590    3.7210   -2.5880 hn        1 MOL      0.354793
    122 H55        -4.0740    3.0680   -3.5920 hn        1 MOL      0.354793
    123 N12        -4.8610    2.9800    0.0780 n         1 MOL     -0.083968
    124 C39        -6.1870    2.7990    0.5280 c3        1 MOL      0.026195
    125 C40        -6.5090    1.3320    0.6310 c         1 MOL      0.549520
    126 O19        -7.3230    0.9740    1.4070 o         1 MOL     -0.581179
    127 C41        -7.1840    3.6450   -0.2820 c3        1 MOL     -0.170764
    128 C42        -6.9680    3.6520   -1.7910 ca        1 MOL      0.042286
    129 C43        -6.4050    4.8100   -2.3610 ca        1 MOL     -0.156140
    130 C44        -7.2700    2.5070   -2.5790 ca        1 MOL     -0.156140
    131 C45        -6.1750    4.7540   -3.7540 ca        1 MOL     -0.261493
    132 C46        -7.1550    2.5020   -3.9730 ca        1 MOL     -0.261493
    133 C47        -6.5540    3.6400   -4.5450 ca        1 MOL      0.361732
    134 O20        -6.1280    3.4620   -5.7990 oh        1 MOL     -0.602718
    135 H56        -4.6780    3.4020   -0.8230 hn        1 MOL      0.068069
    136 H57        -6.3270    3.1980    1.5390 h1        1 MOL      0.036668
    137 H58        -6.9780    4.6690    0.0010 hc        1 MOL      0.071032
    138 H59        -8.2350    3.4360   -0.0770 hc        1 MOL      0.071032
    139 H60        -6.1920    5.6540   -1.7210 ha        1 MOL      0.125905
    140 H61        -7.6390    1.6360   -2.0570 ha        1 MOL      0.125905
    141 H62        -5.5720    5.5110   -4.2420 ha        1 MOL      0.139713
    142 H63        -7.2720    1.6000   -4.5640 ha        1 MOL      0.139713
    143 H64        -6.2020    2.5640   -6.1350 ho        1 MOL      0.452752
    144 N13        -5.9810    0.4520   -0.1720 n         1 MOL     -0.424223
    145 C48        -6.1250   -1.0660   -0.0180 c3        1 MOL     -0.189780
    146 C49        -5.4910   -1.7220    1.2170 c         1 MOL      0.514539
    147 O21        -5.7360   -2.9270    1.4890 o         1 MOL     -0.568894
    148 C50        -5.6050   -1.7740   -1.2510 c3        1 MOL      0.186895
    149 C51        -6.5270   -1.7990   -2.4600 c3        1 MOL     -0.418306
    150 C52        -7.8300   -2.5260   -2.3200 c         1 MOL      0.750256
    151 O22        -8.8710   -1.8470   -2.0510 o         1 MOL     -0.736897
    152 O23        -7.9140   -3.7770   -2.3880 o         1 MOL     -0.736897
    153 H65        -5.4140    0.8860   -0.8950 hn        1 MOL      0.598124
    154 H66        -7.1780   -1.3330   -0.0230 h1        1 MOL      0.164635
    155 H67        -5.4630   -2.8470   -1.0950 hc        1 MOL     -0.010790
    156 H68        -4.5950   -1.5030   -1.5610 hc        1 MOL     -0.010790
    157 H69        -5.8760   -2.2490   -3.2120 hc        1 MOL      0.068664
    158 H70        -6.7380   -0.7980   -2.8210 hc        1 MOL      0.068664
    159 N14        -4.6430   -1.0240    1.8540 n         1 MOL     -0.103183
    160 C53        -3.7210   -1.5490    2.8830 c3        1 MOL      0.044258
    161 C54        -4.0000   -0.9580    4.2710 c         1 MOL      0.354752
    162 O24        -4.2860   -1.7070    5.1980 o         1 MOL     -0.538658
    163 C55        -2.2370   -1.1750    2.4360 c3        1 MOL      0.124864
    164 C56        -1.6300   -1.8960    1.1960 c3        1 MOL     -0.335100
    165 C57        -0.2850   -1.2250    0.7820 c         1 MOL      0.860843
    166 O25         0.5180   -1.8520    0.0540 o         1 MOL     -0.735074
    167 O26         0.0120   -0.0930    1.0820 o         1 MOL     -0.735074
    168 H71        -4.6140   -0.0620    1.5100 hn        1 MOL     -0.087286
    169 H72        -3.7550   -2.6330    3.0010 h1        1 MOL      0.072195
    170 H73        -1.5420   -1.5070    3.2050 hc        1 MOL     -0.012709
    171 H74        -2.1890   -0.1020    2.2930 hc        1 MOL     -0.012709
    172 H75        -2.2690   -1.9270    0.3040 hc        1 MOL      0.093456
    173 H76        -1.4070   -2.9040    1.5470 hc        1 MOL      0.093456
    174 N15        -4.3370    0.3240    4.2980 n         1 MOL      0.018086
    175 C58        -4.8800    1.0160    5.4400 c3        1 MOL     -0.349713
    176 H77        -5.9600    0.8750    5.4690 h1        1 MOL      0.109534
    177 H78        -4.4370    0.6150    6.3520 h1        1 MOL      0.109534
    178 H79        -4.6530    2.0790    5.3620 h1        1 MOL      0.109534
    179 H80        -4.3140    0.8130    3.4190 hn        1 MOL      0.143445
    180 Ca1         2.5340   -0.3210    0.2800 Ca        1 MOL      1.762195
    181 O27         2.3940   -0.5720    2.9870 oh        1 MOL     -0.938480
    182 H81         1.6920   -1.1230    3.3290 ho        1 MOL      0.431108
    183 H82         2.9370   -0.3890    3.7550 ho        1 MOL      0.431108
    184 O28         5.0810   -0.6830    1.3910 oh        1 MOL     -0.938480
    185 H83         5.1520   -1.6150    1.6160 ho        1 MOL      0.431108
    186 H84         5.3560   -0.2180    2.1810 ho        1 MOL      0.431108
    187 O29         0.9370    1.0050   -1.6920 oh        1 MOL     -0.938480
    188 H85         1.6360    1.5530   -2.0640 ho        1 MOL      0.431108
    189 H86         0.5120    0.6120   -2.4510 ho        1 MOL      0.431108
@<TRIPOS>BOND
     1    1    2 1   
     2    1    4 1   
     3    1    5 1   
     4    1    6 1   
     5    2    3 2   
     6    2    7 1   
     7    7    8 1   
     8    7   15 1   
     9    8    9 1   
    10    8   11 1   
    11    8   16 1   
    12    9   10 2   
    13    9   19 1   
    14   11   12 1   
    15   11   17 1   
    16   11   18 1   
    17   12   13 1   
    18   12   14 1   
    19   19   20 1   
    20   19   27 1   
    21   20   21 1   
    22   20   23 1   
    23   20   28 1   
    24   21   22 2   
    25   21   38 1   
    26   23   24 1   
    27   23   25 1   
    28   23   29 1   
    29   24   26 1   
    30   24   30 1   
    31   24   31 1   
    32   25   32 1   
    33   25   33 1   
    34   25   34 1   
    35   26   35 1   
    36   26   36 1   
    37   26   37 1   
    38   38   39 1   
    39   38   46 1   
    40   39   40 1   
    41   39   42 1   
    42   39   47 1   
    43   40   41 2   
    44   40   50 1   
    45   42   43 1   
    46   42   48 1   
    47   42   49 1   
    48   43   44 1   
    49   43   45 1   
    50   50   51 1   
    51   50   54 1   
    52   51   52 1   
    53   51   55 1   
    54   51   56 1   
    55   52   53 2   
    56   52   57 1   
    57   57   58 1   
    58   57   65 1   
    59   58   59 1   
    60   58   61 1   
    61   58   66 1   
    62   59   60 2   
    63   59   69 1   
    64   61   62 1   
    65   61   67 1   
    66   61   68 1   
    67   62   63 1   
    68   62   64 1   
    69   69   70 1   
    70   69   73 1   
    71   70   71 1   
    72   70   74 1   
    73   70   75 1   
    74   71   72 2   
    75   71   76 1   
    76   76   77 1   
    77   76   85 1   
    78   77   78 1   
    79   77   80 1   
    80   77   86 1   
    81   78   79 2   
    82   78   93 1   
    83   80   81 1   
    84   80   87 1   
    85   80   88 1   
    86   81   82 1   
    87   81   89 1   
    88   81   90 1   
    89   82   83 1   
    90   82   84 2   
    91   83   91 1   
    92   83   92 1   
    93   93   94 1   
    94   93  100 1   
    95   94   95 1   
    96   94   97 1   
    97   94  101 1   
    98   95   96 2   
    99   95  109 1   
   100   97   98 1   
   101   97   99 1   
   102   97  102 1   
   103   98  103 1   
   104   98  104 1   
   105   98  105 1   
   106   99  106 1   
   107   99  107 1   
   108   99  108 1   
   109  109  110 1   
   110  109  117 1   
   111  110  111 1   
   112  110  113 1   
   113  110  118 1   
   114  111  112 2   
   115  111  123 1   
   116  113  114 1   
   117  113  119 1   
   118  113  120 1   
   119  114  115 1   
   120  114  116 2   
   121  115  121 1   
   122  115  122 1   
   123  123  124 1   
   124  123  135 1   
   125  124  125 1   
   126  124  127 1   
   127  124  136 1   
   128  125  126 2   
   129  125  144 1   
   130  127  128 1   
   131  127  137 1   
   132  127  138 1   
   133  128  129 ar  
   134  128  130 ar  
   135  129  131 ar  
   136  129  139 1   
   137  130  132 ar  
   138  130  140 1   
   139  131  133 ar  
   140  131  141 1   
   141  132  133 ar  
   142  132  142 1   
   143  133  134 1   
   144  134  143 1   
   145  144  145 1   
   146  144  153 1   
   147  145  146 1   
   148  145  148 1   
   149  145  154 1   
   150  146  147 2   
   151  146  159 1   
   152  148  149 1   
   153  148  155 1   
   154  148  156 1   
   155  149  150 1   
   156  149  157 1   
   157  149  158 1   
   158  150  151 1   
   159  150  152 1   
   160  159  160 1   
   161  159  168 1   
   162  160  161 1   
   163  160  163 1   
   164  160  169 1   
   165  161  162 2   
   166  161  174 1   
   167  163  164 1   
   168  163  170 1   
   169  163  171 1   
   170  164  165 1   
   171  164  172 1   
   172  164  173 1   
   173  165  166 1   
   174  165  167 1   
   175  174  175 1   
   176  174  179 1   
   177  175  176 1   
   178  175  177 1   
   179  175  178 1   
   180  181  182 1   
   181  181  183 1   
   182  184  185 1   
   183  184  186 1   
   184  187  188 1   
   185  187  189 1   
@<TRIPOS>SUBSTRUCTURE
     1 MOL         1 TEMP              0 ****  ****    0 ROOT
