@<TRIPOS>MOLECULE
MOL
  189   185     1     0     0
SMALL
resp


@<TRIPOS>ATOM
      1 C1          0.0410    4.1440    5.8440 c3        1 MOL     -0.399313
      2 C2         -0.6430    3.6490    4.6290 c         1 MOL      0.789410
      3 O1         -1.0640    2.4870    4.6270 o         1 MOL     -0.622398
      4 H1         -0.0390    3.3970    6.6340 hc        1 MOL      0.100881
      5 H2          1.0930    4.3250    5.6200 hc        1 MOL      0.100881
      6 H3         -0.4270    5.0720    6.1720 hc        1 MOL      0.100881
      7 N1         -0.7950    4.5060    3.6090 n         1 MOL     -0.667473
      8 C3         -1.3260    4.1470    2.2770 c3        1 MOL      0.374732
      9 C4         -0.6400    4.9710    1.2050 c         1 MOL      0.558393
     10 O2         -0.4920    6.1650    1.4290 o         1 MOL     -0.615371
     11 C5         -2.8150    4.4460    2.3150 c3        1 MOL     -0.132502
     12 C6         -3.5700    3.9230    1.0350 c         1 MOL      0.519036
     13 O3         -4.4100    4.6880    0.5340 o         1 MOL     -0.605396
     14 O4         -3.1320    2.9300    0.4820 o         1 MOL     -0.605396
     15 H4         -0.2920    5.3750    3.6930 hn        1 MOL      0.309156
     16 H5         -1.2590    3.0890    1.9960 h1        1 MOL     -0.054954
     17 H6         -2.9740    5.5080    2.4690 hc        1 MOL      0.015497
     18 H7         -3.1910    4.0200    3.2380 hc        1 MOL      0.015497
     19 N2         -0.3810    4.4680   -0.0010 n         1 MOL     -0.480728
     20 C7         -0.1000    5.2690   -1.1170 c3        1 MOL      0.199544
     21 C8         -0.8150    4.7680   -2.3760 c         1 MOL      0.412445
     22 O5         -0.4200    5.2340   -3.4610 o         1 MOL     -0.543255
     23 C9          1.4550    5.3990   -1.2410 c3        1 MOL      0.170306
     24 C10         1.8780    6.6710   -1.9190 c3        1 MOL      0.165895
     25 C11         2.1950    4.1280   -1.6830 c3        1 MOL     -0.423354
     26 C12         1.6990    7.9640   -1.1850 c3        1 MOL     -0.133325
     27 H8         -0.3100    3.4720   -0.1370 hn        1 MOL      0.282287
     28 H9         -0.5080    6.2660   -1.0310 h1        1 MOL      0.031218
     29 H10         1.7140    5.6070   -0.1980 hc        1 MOL     -0.007040
     30 H11         1.4980    6.7270   -2.9410 hc        1 MOL     -0.062618
     31 H12         2.9620    6.5990   -1.9910 hc        1 MOL     -0.062618
     32 H13         1.8450    3.2420   -1.1490 hc        1 MOL      0.116928
     33 H14         2.2310    3.9170   -2.7510 hc        1 MOL      0.116928
     34 H15         3.2100    4.2900   -1.3100 hc        1 MOL      0.116928
     35 H16         2.2140    7.9320   -0.2220 hc        1 MOL      0.012459
     36 H17         1.9840    8.8480   -1.7480 hc        1 MOL      0.012459
     37 H18         0.6600    8.1880   -0.9860 hc        1 MOL      0.012459
     38 N3         -1.8370    3.8890   -2.2900 n         1 MOL     -0.385267
     39 C13        -2.5370    3.4650   -3.5100 c3        1 MOL      0.055987
     40 C14        -4.0470    3.2680   -3.3960 c         1 MOL      0.379601
     41 O6         -4.7470    2.9860   -4.3680 o         1 MOL     -0.558775
     42 C15        -1.8790    2.2020   -4.1640 c3        1 MOL     -0.114446
     43 C16        -1.9470    0.9290   -3.3680 c         1 MOL      0.710758
     44 O7         -2.7980    0.8980   -2.4040 o         1 MOL     -0.685181
     45 O8         -1.1240   -0.0210   -3.5890 o         1 MOL     -0.685181
     46 H19        -2.1620    3.5800   -1.3810 hn        1 MOL      0.329781
     47 H20        -2.5350    4.1930   -4.3280 h1        1 MOL      0.075780
     48 H21        -0.8520    2.5040   -4.3740 hc        1 MOL      0.034067
     49 H22        -2.4110    2.1010   -5.1070 hc        1 MOL      0.034067
     50 N4         -4.5580    3.4220   -2.2120 n         1 MOL     -0.135537
     51 C17        -5.9200    3.4010   -1.7900 c3        1 MOL     -0.251107
     52 C18        -6.5280    1.9670   -1.8560 c         1 MOL      0.432566
     53 O9         -7.7590    1.8290   -1.6590 o         1 MOL     -0.585167
     54 H23        -3.8800    3.7190   -1.5260 hn        1 MOL      0.103764
     55 H24        -6.5410    3.9950   -2.4640 h1        1 MOL      0.132260
     56 H25        -5.9640    3.7980   -0.7750 h1        1 MOL      0.132260
     57 N5         -5.6780    0.8510   -2.0410 n         1 MOL     -0.119954
     58 C19        -6.2010   -0.4350   -2.5630 c3        1 MOL     -0.014285
     59 C20        -7.1710   -1.1750   -1.6220 c         1 MOL      0.500111
     60 O10        -7.8500   -2.1110   -2.0340 o         1 MOL     -0.556923
     61 C21        -5.0250   -1.3740   -3.0160 c3        1 MOL     -0.139858
     62 C22        -3.9870   -1.8180   -2.0280 c         1 MOL      0.786088
     63 O11        -3.8980   -1.3910   -0.8370 o         1 MOL     -0.666266
     64 O12        -3.1440   -2.6160   -2.4980 o         1 MOL     -0.666266
     65 H26        -4.6790    0.9740   -1.9990 hn        1 MOL      0.114341
     66 H27        -6.8100   -0.2240   -3.4380 h1        1 MOL      0.070258
     67 H28        -4.4420   -0.8680   -3.7820 hc        1 MOL      0.039701
     68 H29        -5.4320   -2.2250   -3.5510 hc        1 MOL      0.039701
     69 N6         -7.0920   -0.8860   -0.2990 n         1 MOL     -0.363557
     70 C23        -7.7260   -1.8450    0.6050 c3        1 MOL      0.014455
     71 C24        -6.7820   -2.8310    1.3810 c         1 MOL      0.486817
     72 O13        -7.3010   -3.7120    2.0790 o         1 MOL     -0.604777
     73 H30        -6.4150   -0.2350    0.0670 hn        1 MOL      0.272345
     74 H31        -8.5690   -2.3490    0.1190 h1        1 MOL      0.041698
     75 H32        -8.1790   -1.2390    1.3940 h1        1 MOL      0.041698
     76 N7         -5.4670   -2.8910    0.9670 n         1 MOL     -0.282534
     77 C25        -4.3490   -3.8490    1.4800 c3        1 MOL      0.001426
     78 C26        -3.0470   -3.0280    1.6970 c         1 MOL      0.449701
     79 O14        -3.0390   -1.8500    1.5600 o         1 MOL     -0.524035
     80 C27        -4.0300   -4.9590    0.5330 c3        1 MOL     -0.029093
     81 C28        -5.2230   -5.9230    0.4050 c3        1 MOL     -0.298321
     82 C29        -4.7140   -7.2110   -0.3400 c         1 MOL      0.642356
     83 N8         -5.5240   -8.2000   -0.5570 n         1 MOL     -0.751666
     84 O15        -3.6240   -7.3830   -0.9140 o         1 MOL     -0.546493
     85 H33        -5.1810   -2.1900    0.3030 hn        1 MOL      0.163559
     86 H34        -4.6640   -4.2640    2.4410 h1        1 MOL      0.061620
     87 H35        -3.1390   -5.4280    0.9360 hc        1 MOL      0.036604
     88 H36        -3.6960   -4.5560   -0.4210 hc        1 MOL      0.036604
     89 H37        -6.0550   -5.4830   -0.1390 hc        1 MOL      0.122619
     90 H38        -5.5450   -6.1930    1.4120 hc        1 MOL      0.122619
     91 H39        -6.4650   -8.1690   -0.1900 hn        1 MOL      0.332694
     92 H40        -5.1220   -8.9950   -1.0260 hn        1 MOL      0.332694
     93 N9         -1.9460   -3.6690    2.1130 n         1 MOL     -0.476772
     94 C30        -0.6540   -2.9310    2.3930 c3        1 MOL      0.144612
     95 C31         0.4960   -3.4840    1.6310 c         1 MOL      0.502507
     96 O16         0.6410   -4.6890    1.5380 o         1 MOL     -0.587666
     97 C32        -0.3240   -2.9010    3.8960 c3        1 MOL      0.254808
     98 C33        -1.3340   -2.0700    4.6900 c3        1 MOL     -0.315970
     99 C34        -0.2950   -4.2150    4.6280 c3        1 MOL     -0.315970
    100 H41        -1.9790   -4.6670    2.2940 hn        1 MOL      0.305403
    101 H42        -0.8140   -1.9040    2.0600 h1        1 MOL      0.157373
    102 H43         0.7030   -2.5380    3.9040 hc        1 MOL     -0.039423
    103 H44        -2.2900   -2.5890    4.6370 hc        1 MOL      0.060183
    104 H45        -1.0420   -1.9240    5.7340 hc        1 MOL      0.060183
    105 H46        -1.4360   -1.1060    4.1800 hc        1 MOL      0.060183
    106 H47        -1.2560   -4.6750    4.8140 hc        1 MOL      0.060183
    107 H48         0.2340   -4.9460    4.0140 hc        1 MOL      0.060183
    108 H49         0.1510   -4.0450    5.5990 hc        1 MOL      0.060183
    109 N10         1.2750   -2.5840    1.1780 n         1 MOL     -0.464124
    110 C35         2.3660   -2.8210    0.2440 c3        1 MOL      0.575389
    111 C36         3.7440   -2.5480    0.9960 c         1 MOL      0.003595
    112 O17         3.7670   -2.0220    2.0850 o         1 MOL     -0.213881
    113 C37         2.2000   -1.8640   -0.9920 c3        1 MOL     -0.420038
    114 C38         3.2780   -1.8020   -1.9510 c         1 MOL      0.930108
    115 N11         3.6250   -2.8810   -2.6300 n         1 MOL     -0.864638
    116 O18         3.8890   -0.7570   -2.0820 o         1 MOL     -0.675820
    117 H50         1.1080   -1.6570    1.5250 hn        1 MOL      0.194895
    118 H51         2.3280   -3.8680   -0.0600 h1        1 MOL     -0.043357
    119 H52         1.9890   -0.8680   -0.5840 hc        1 MOL      0.118164
    120 H53         1.3260   -2.2720   -1.4950 hc        1 MOL      0.118164
    121 H54         3.0610   -3.7120   -2.6470 hn        1 MOL      0.354168
    122 H55         4.4950   -2.8060   -3.1520 hn        1 MOL      0.354168
    123 N12         4.7930   -2.9270    0.2410 n         1 MOL     -0.170528
    124 C39         6.2440   -2.7740    0.5340 c3        1 MOL      0.155518
    125 C40         6.7270   -1.2720    0.5230 c         1 MOL      0.128459
    126 O19         7.7830   -0.9030    1.0680 o         1 MOL     -0.537611
    127 C41         7.1810   -3.6010   -0.4010 c3        1 MOL     -0.237149
    128 C42         6.8280   -3.5640   -1.8560 ca        1 MOL      0.087405
    129 C43         6.5210   -4.7950   -2.4660 ca        1 MOL     -0.065883
    130 C44         6.9010   -2.3780   -2.6320 ca        1 MOL     -0.065883
    131 C45         6.2700   -4.8600   -3.8660 ca        1 MOL     -0.365370
    132 C46         6.4710   -2.4130   -3.9920 ca        1 MOL     -0.365370
    133 C47         6.1450   -3.6540   -4.6070 ca        1 MOL      0.409375
    134 O20         5.6490   -3.5850   -5.8750 oh        1 MOL     -0.437820
    135 H56         4.5870   -3.3640   -0.6500 hn        1 MOL      0.069741
    136 H57         6.4750   -3.1020    1.5460 h1        1 MOL      0.048161
    137 H58         7.2790   -4.6530   -0.1350 hc        1 MOL      0.086045
    138 H59         8.1810   -3.1710   -0.3140 hc        1 MOL      0.086045
    139 H60         6.6250   -5.7340   -1.9380 ha        1 MOL      0.078007
    140 H61         7.1410   -1.4250   -2.1800 ha        1 MOL      0.078007
    141 H62         6.0320   -5.8120   -4.3080 ha        1 MOL      0.145132
    142 H63         6.3950   -1.4460   -4.4870 ha        1 MOL      0.145132
    143 H64         5.3340   -4.4600   -6.0970 ho        1 MOL      0.311723
    144 N13         5.9220   -0.3300    0.0240 n         1 MOL      0.732985
    145 C48         6.1460    1.1170    0.2030 c3        1 MOL     -0.583660
    146 C49         5.3670    1.7400    1.3380 c         1 MOL      0.665912
    147 O21         5.4830    2.9180    1.6310 o         1 MOL     -0.555292
    148 C50         5.9260    1.9310   -1.0870 c3        1 MOL      0.159029
    149 C51         6.7670    1.4650   -2.2940 c3        1 MOL     -0.224720
    150 C52         8.2800    1.3540   -2.1240 c         1 MOL      0.681674
    151 O22         8.9260    0.4490   -2.6770 o         1 MOL     -0.711796
    152 O23         8.8620    2.1110   -1.3640 o         1 MOL     -0.711796
    153 H65         5.1150   -0.6020   -0.5280 hn        1 MOL      0.071007
    154 H66         7.1500    1.2860    0.5870 h1        1 MOL      0.213540
    155 H67         6.0800    2.9810   -0.8670 hc        1 MOL     -0.019300
    156 H68         4.8680    1.9080   -1.3360 hc        1 MOL     -0.019300
    157 H69         6.5930    2.0760   -3.1780 hc        1 MOL      0.048865
    158 H70         6.4410    0.4900   -2.6760 hc        1 MOL      0.048865
    159 N14         4.5810    0.8740    1.9720 n         1 MOL     -0.490402
    160 C53         3.6000    1.3100    3.0660 c3        1 MOL      0.242684
    161 C54         3.9720    0.7610    4.4990 c         1 MOL      0.299169
    162 O24         4.1110    1.4930    5.5100 o         1 MOL     -0.549901
    163 C55         2.2050    0.8560    2.7390 c3        1 MOL     -0.046473
    164 C56         1.6770    1.7140    1.5630 c3        1 MOL      0.209113
    165 C57         0.4510    1.1610    0.9190 c         1 MOL      0.820457
    166 O25        -0.1880    1.8090    0.0570 o         1 MOL     -0.824646
    167 O26         0.0360   -0.0010    1.2650 o         1 MOL     -0.824646
    168 H71         4.5590   -0.0950    1.7070 hn        1 MOL      0.005947
    169 H72         3.6400    2.3880    3.2630 h1        1 MOL      0.024177
    170 H73         1.5900    1.0840    3.6160 hc        1 MOL      0.001001
    171 H74         2.2670   -0.1930    2.4580 hc        1 MOL      0.001001
    172 H75         2.4580    1.7580    0.8060 hc        1 MOL     -0.074144
    173 H76         1.5500    2.7200    1.9540 hc        1 MOL     -0.074144
    174 N15         4.3640   -0.4690    4.5070 n         1 MOL      0.028330
    175 C58         4.8020   -1.1940    5.6520 c3        1 MOL     -0.154663
    176 H77         4.4280   -0.7080    6.5530 h1        1 MOL      0.061730
    177 H78         4.4210   -2.2140    5.6050 h1        1 MOL      0.061730
    178 H79         5.8920   -1.2120    5.6760 h1        1 MOL      0.061730
    179 H80         4.1660   -1.0360    3.6920 hn        1 MOL      0.034605
    180 Ca1        -2.3710    0.3280    0.2510 Ca        1 MOL      1.685757
    181 O27        -2.4510    1.0640    2.9220 oh        1 MOL     -0.849860
    182 O28        -1.1530   -1.5200   -1.2760 oh        1 MOL     -0.849860
    183 H81        -3.2160    0.7500    3.4120 ho        1 MOL      0.405140
    184 H82        -1.9610   -1.9440   -1.5530 ho        1 MOL      0.405140
    185 H83        -2.0000    1.6470    3.5340 ho        1 MOL      0.405140
    186 H84        -0.9450   -0.9180   -1.9940 ho        1 MOL      0.405140
    187 O29        -5.0080    1.1310    1.3240 oh        1 MOL     -0.849860
    188 H85        -4.7660    2.0100    1.0360 ho        1 MOL      0.405140
    189 H86        -5.7790    1.2560    1.8740 ho        1 MOL      0.405140
@<TRIPOS>BOND
     1    1    2 1   
     2    1    4 1   
     3    1    5 1   
     4    1    6 1   
     5    2    3 2   
     6    2    7 1   
     7    7    8 1   
     8    7   15 1   
     9    8    9 1   
    10    8   11 1   
    11    8   16 1   
    12    9   10 2   
    13    9   19 1   
    14   11   12 1   
    15   11   17 1   
    16   11   18 1   
    17   12   13 1   
    18   12   14 1   
    19   19   20 1   
    20   19   27 1   
    21   20   21 1   
    22   20   23 1   
    23   20   28 1   
    24   21   22 2   
    25   21   38 1   
    26   23   24 1   
    27   23   25 1   
    28   23   29 1   
    29   24   26 1   
    30   24   30 1   
    31   24   31 1   
    32   25   32 1   
    33   25   33 1   
    34   25   34 1   
    35   26   35 1   
    36   26   36 1   
    37   26   37 1   
    38   38   39 1   
    39   38   46 1   
    40   39   40 1   
    41   39   42 1   
    42   39   47 1   
    43   40   41 2   
    44   40   50 1   
    45   42   43 1   
    46   42   48 1   
    47   42   49 1   
    48   43   44 1   
    49   43   45 1   
    50   50   51 1   
    51   50   54 1   
    52   51   52 1   
    53   51   55 1   
    54   51   56 1   
    55   52   53 2   
    56   52   57 1   
    57   57   58 1   
    58   57   65 1   
    59   58   59 1   
    60   58   61 1   
    61   58   66 1   
    62   59   60 2   
    63   59   69 1   
    64   61   62 1   
    65   61   67 1   
    66   61   68 1   
    67   62   63 1   
    68   62   64 1   
    69   69   70 1   
    70   69   73 1   
    71   70   71 1   
    72   70   74 1   
    73   70   75 1   
    74   71   72 2   
    75   71   76 1   
    76   76   77 1   
    77   76   85 1   
    78   77   78 1   
    79   77   80 1   
    80   77   86 1   
    81   78   79 2   
    82   78   93 1   
    83   80   81 1   
    84   80   87 1   
    85   80   88 1   
    86   81   82 1   
    87   81   89 1   
    88   81   90 1   
    89   82   83 1   
    90   82   84 2   
    91   83   91 1   
    92   83   92 1   
    93   93   94 1   
    94   93  100 1   
    95   94   95 1   
    96   94   97 1   
    97   94  101 1   
    98   95   96 2   
    99   95  109 1   
   100   97   98 1   
   101   97   99 1   
   102   97  102 1   
   103   98  103 1   
   104   98  104 1   
   105   98  105 1   
   106   99  106 1   
   107   99  107 1   
   108   99  108 1   
   109  109  110 1   
   110  109  117 1   
   111  110  111 1   
   112  110  113 1   
   113  110  118 1   
   114  111  112 2   
   115  111  123 1   
   116  113  114 1   
   117  113  119 1   
   118  113  120 1   
   119  114  115 1   
   120  114  116 2   
   121  115  121 1   
   122  115  122 1   
   123  123  124 1   
   124  123  135 1   
   125  124  125 1   
   126  124  127 1   
   127  124  136 1   
   128  125  126 2   
   129  125  144 1   
   130  127  128 1   
   131  127  137 1   
   132  127  138 1   
   133  128  129 ar  
   134  128  130 ar  
   135  129  131 ar  
   136  129  139 1   
   137  130  132 ar  
   138  130  140 1   
   139  131  133 ar  
   140  131  141 1   
   141  132  133 ar  
   142  132  142 1   
   143  133  134 1   
   144  134  143 1   
   145  144  145 1   
   146  144  153 1   
   147  145  146 1   
   148  145  148 1   
   149  145  154 1   
   150  146  147 2   
   151  146  159 1   
   152  148  149 1   
   153  148  155 1   
   154  148  156 1   
   155  149  150 1   
   156  149  157 1   
   157  149  158 1   
   158  150  151 1   
   159  150  152 1   
   160  159  160 1   
   161  159  168 1   
   162  160  161 1   
   163  160  163 1   
   164  160  169 1   
   165  161  162 2   
   166  161  174 1   
   167  163  164 1   
   168  163  170 1   
   169  163  171 1   
   170  164  165 1   
   171  164  172 1   
   172  164  173 1   
   173  165  166 1   
   174  165  167 1   
   175  174  175 1   
   176  174  179 1   
   177  175  176 1   
   178  175  177 1   
   179  175  178 1   
   180  181  183 1   
   181  181  185 1   
   182  182  184 1   
   183  182  186 1   
   184  187  188 1   
   185  187  189 1   
@<TRIPOS>SUBSTRUCTURE
     1 MOL         1 TEMP              0 ****  ****    0 ROOT
