@<TRIPOS>MOLECULE
MOL
  189   185     1     0     0
SMALL
resp


@<TRIPOS>ATOM
      1 C1          0.2250    3.6830   -5.1260 c3        1 MOL     -0.269641
      2 C2          0.7460    3.1260   -3.8190 c         1 MOL      0.748690
      3 O1         -0.0840    3.1860   -2.8590 o         1 MOL     -0.686494
      4 H1         -0.7310    4.1760   -4.9540 hc        1 MOL      0.064309
      5 H2          0.9380    4.4040   -5.5250 hc        1 MOL      0.064309
      6 H3          0.0900    2.8700   -5.8400 hc        1 MOL      0.064309
      7 N1          1.9730    2.7820   -3.6550 n         1 MOL     -0.617530
      8 C3          2.5340    2.4070   -2.3520 c3        1 MOL      0.217481
      9 C4          2.6410    3.5480   -1.2690 c         1 MOL      0.472727
     10 O2          3.6170    4.2510   -1.2340 o         1 MOL     -0.575877
     11 C5          3.8580    1.6360   -2.6130 c3        1 MOL     -0.323054
     12 C6          4.2070    0.7100   -1.4150 c         1 MOL      0.690162
     13 O3          3.5510    0.8260   -0.3640 o         1 MOL     -0.642741
     14 O4          5.0610   -0.1800   -1.6080 o         1 MOL     -0.642741
     15 H4          2.6220    2.6460   -4.4200 hn        1 MOL      0.342393
     16 H5          1.8590    1.6610   -1.9370 h1        1 MOL     -0.028920
     17 H6          4.6910    2.3400   -2.7000 hc        1 MOL      0.086907
     18 H7          3.8860    1.0970   -3.5600 hc        1 MOL      0.086907
     19 N2          1.7020    3.7020   -0.3130 n         1 MOL     -0.033611
     20 C7          1.5480    4.8270    0.6190 c3        1 MOL     -0.114739
     21 C8          2.4590    4.8590    1.8860 c         1 MOL      0.480333
     22 O5          2.7800    5.9280    2.4760 o         1 MOL     -0.582078
     23 C9          0.0900    5.1560    0.9180 c3        1 MOL     -0.149791
     24 C10        -0.6250    6.2260    0.1390 c3        1 MOL      0.088232
     25 C11        -1.2430    5.9130   -1.2210 c3        1 MOL     -0.044740
     26 C12        -0.3850    6.2170   -2.4520 c3        1 MOL      0.041349
     27 N3          0.1070    7.6450   -2.4670 n4        1 MOL     -0.493090
     28 H8          1.0120    2.9830   -0.1810 hn        1 MOL      0.165371
     29 H9          1.8840    5.7120    0.0990 h1        1 MOL      0.048357
     30 H10         0.0200    5.3080    1.9990 hc        1 MOL      0.085468
     31 H11        -0.4120    4.1890    0.9330 hc        1 MOL      0.085468
     32 H12         0.0150    7.1120    0.1020 hc        1 MOL     -0.011511
     33 H13        -1.3700    6.6200    0.8390 hc        1 MOL     -0.011511
     34 H14        -2.1790    6.4550   -1.3160 hc        1 MOL      0.049284
     35 H15        -1.5350    4.8720   -1.1160 hc        1 MOL      0.049284
     36 H16        -0.8530    6.0590   -3.4240 hx        1 MOL      0.092326
     37 H17         0.4770    5.5620   -2.4830 hx        1 MOL      0.092326
     38 H18         0.2770    7.8960   -3.4310 hn        1 MOL      0.352394
     39 H19        -0.5440    8.2950   -2.0330 hn        1 MOL      0.352394
     40 H20         0.9700    7.6230   -1.9440 hn        1 MOL      0.352394
     41 N4          3.0950    3.7170    2.1860 n         1 MOL     -0.254585
     42 C13         4.1990    3.4570    3.2310 c3        1 MOL     -0.102963
     43 C14         5.4600    2.8350    2.6160 c         1 MOL      0.483338
     44 O6          6.3760    2.5820    3.3240 o         1 MOL     -0.494453
     45 C15         3.6540    2.5210    4.3180 c3        1 MOL     -0.098046
     46 C16         2.9990    1.2300    3.8500 c         1 MOL      0.660674
     47 O7          2.4350    0.5080    4.6980 o         1 MOL     -0.669676
     48 O8          3.0500    0.9050    2.6240 o         1 MOL     -0.669676
     49 H21         2.7060    2.9090    1.7340 hn        1 MOL      0.190301
     50 H22         4.4000    4.4090    3.7110 h1        1 MOL      0.142264
     51 H23         2.9200    3.0570    4.9230 hc        1 MOL      0.045632
     52 H24         4.4710    2.3050    5.0140 hc        1 MOL      0.045632
     53 N5          5.6010    2.6850    1.2400 n         1 MOL     -0.353863
     54 C17         6.7990    2.0690    0.5560 c3        1 MOL     -0.116702
     55 C18         7.1980    0.6180    0.9150 c         1 MOL      0.527306
     56 O9          8.3440    0.2710    0.6520 o         1 MOL     -0.575742
     57 H25         4.7810    2.8560    0.6620 hn        1 MOL      0.222830
     58 H26         7.6640    2.7230    0.7220 h1        1 MOL      0.088760
     59 H27         6.5940    1.9170   -0.5050 h1        1 MOL      0.088760
     60 N6          6.3230   -0.1260    1.5660 n         1 MOL     -0.180892
     61 C19         6.6730   -1.3830    2.1740 c3        1 MOL     -0.045850
     62 C20         6.9490   -2.5350    1.0920 c         1 MOL      0.408173
     63 O10         7.7480   -3.4530    1.4010 o         1 MOL     -0.554793
     64 C21         5.7290   -1.7930    3.2470 c3        1 MOL     -0.196170
     65 C22         4.3430   -2.2350    2.7820 c         1 MOL      0.688964
     66 O11         3.9660   -2.0350    1.6090 o         1 MOL     -0.628834
     67 O12         3.6370   -2.9060    3.5480 o         1 MOL     -0.628834
     68 H28         5.3450    0.1070    1.5010 hn        1 MOL      0.160558
     69 H29         7.6530   -1.2550    2.6340 h1        1 MOL      0.101804
     70 H30         5.6780   -0.9880    3.9790 hc        1 MOL      0.078832
     71 H31         6.1950   -2.5990    3.8070 hc        1 MOL      0.078832
     72 N7          6.4410   -2.4450   -0.1480 n         1 MOL     -0.062445
     73 C23         6.7100   -3.2380   -1.2950 c3        1 MOL     -0.247485
     74 C24         5.5110   -4.0760   -1.7870 c         1 MOL      0.584280
     75 O13         5.6190   -4.7910   -2.7920 o         1 MOL     -0.579130
     76 H32         5.9190   -1.5980   -0.3040 hn        1 MOL      0.186723
     77 H33         7.4770   -3.9610   -0.9930 h1        1 MOL      0.113372
     78 H34         7.0630   -2.5630   -2.0620 h1        1 MOL      0.113372
     79 N8          4.3330   -4.0550   -1.0820 n         1 MOL     -0.253156
     80 C25         3.0290   -4.4880   -1.7320 c3        1 MOL      0.060381
     81 C26         2.0630   -3.3510   -1.7000 c         1 MOL      0.707927
     82 O14         2.2580   -2.3280   -0.9970 o         1 MOL     -0.679197
     83 C27         2.5040   -5.6450   -0.9080 c3        1 MOL      0.212084
     84 C28         3.4770   -6.8150   -0.6300 c3        1 MOL     -0.460578
     85 O15         2.0170   -5.3600    0.3890 oh        1 MOL     -0.576022
     86 H35         4.2130   -3.2820   -0.4440 hn        1 MOL      0.095716
     87 H36         3.1980   -4.8390   -2.7500 h1        1 MOL      0.051594
     88 H37         1.6070   -5.9540   -1.4330 h1        1 MOL      0.005653
     89 H38         1.8090   -6.2330    0.7450 ho        1 MOL      0.405478
     90 H39         4.2020   -6.5000    0.1090 hc        1 MOL      0.130700
     91 H40         2.8990   -7.6610   -0.2460 hc        1 MOL      0.130700
     92 H41         3.9520   -7.0760   -1.5750 hc        1 MOL      0.130700
     93 N9          0.9740   -3.5730   -2.4560 n         1 MOL     -0.614319
     94 C29        -0.2320   -2.6420   -2.4520 c3        1 MOL     -0.062710
     95 C30        -1.3780   -3.3560   -1.7510 c         1 MOL      0.534349
     96 O16        -1.6480   -4.5670   -1.9820 o         1 MOL     -0.561477
     97 C31        -0.5310   -2.1910   -3.8290 c3        1 MOL      0.276890
     98 C32         0.6600   -1.3500   -4.3340 c3        1 MOL      0.005521
     99 C33        -1.7510   -1.2350   -3.8830 c3        1 MOL     -0.445529
    100 C34         0.6480   -1.0940   -5.8800 c3        1 MOL     -0.369675
    101 H42         0.9990   -4.3620   -3.0950 hn        1 MOL      0.322001
    102 H43         0.0210   -1.7320   -1.9050 h1        1 MOL      0.055329
    103 H44        -0.7300   -3.0570   -4.4570 hc        1 MOL      0.005317
    104 H45         1.6620   -1.7570   -4.1940 hc        1 MOL      0.057136
    105 H46         0.6110   -0.4020   -3.8130 hc        1 MOL      0.057136
    106 H47        -2.6460   -1.7460   -3.5350 hc        1 MOL      0.087168
    107 H48        -1.6390   -0.3520   -3.2400 hc        1 MOL      0.087168
    108 H49        -1.8580   -1.0190   -4.9400 hc        1 MOL      0.087168
    109 H50         1.5470   -0.5120   -6.0780 hc        1 MOL      0.091985
    110 H51         0.5770   -1.9980   -6.4870 hc        1 MOL      0.091985
    111 H52        -0.2170   -0.5140   -6.1940 hc        1 MOL      0.091985
    112 N10        -2.0160   -2.6320   -0.7820 n         1 MOL     -0.188814
    113 C35        -3.2840   -3.0800   -0.0850 c3        1 MOL     -0.133422
    114 C36        -4.5120   -2.4520   -0.8440 c         1 MOL      0.414041
    115 O17        -4.4130   -1.6490   -1.7610 o         1 MOL     -0.372690
    116 C37        -3.2130   -2.6950    1.4270 c3        1 MOL      0.161023
    117 C38        -2.1790   -3.5120    2.2200 c3        1 MOL     -0.303357
    118 O18        -2.8270   -1.3820    1.5910 oh        1 MOL     -0.527057
    119 H53        -1.7320   -1.6620   -0.7530 hn        1 MOL      0.324708
    120 H54        -3.3050   -4.1640   -0.1450 h1        1 MOL      0.109487
    121 H55        -4.1610   -2.7740    1.9590 h1        1 MOL      0.027707
    122 H56        -1.8900   -1.2850    1.4410 ho        1 MOL      0.345560
    123 H57        -2.1960   -3.0840    3.2220 hc        1 MOL      0.093134
    124 H58        -2.4590   -4.5450    2.3970 hc        1 MOL      0.093134
    125 H59        -1.1840   -3.4840    1.7730 hc        1 MOL      0.093134
    126 N11        -5.7350   -2.9630   -0.5510 n         1 MOL     -0.422436
    127 C39        -7.0120   -2.3850   -0.9890 c3        1 MOL      0.088170
    128 C40        -7.1390   -0.9070   -0.6670 c         1 MOL      0.181222
    129 O19        -7.5980   -0.1370   -1.4860 o         1 MOL     -0.465575
    130 C41        -8.2340   -3.0030   -0.3350 c3        1 MOL      0.147255
    131 C42        -8.3650   -4.4750   -0.8110 c3        1 MOL     -0.561334
    132 O20        -8.0960   -3.0120    1.0940 oh        1 MOL     -0.617006
    133 H60        -5.7700   -3.8030    0.0110 hn        1 MOL      0.283676
    134 H61        -7.1590   -2.5110   -2.0660 h1        1 MOL      0.117435
    135 H62        -9.1150   -2.4560   -0.6680 h1        1 MOL      0.094294
    136 H63        -8.9160   -3.4150    1.3730 ho        1 MOL      0.421060
    137 H64        -8.2870   -4.5020   -1.9020 hc        1 MOL      0.167140
    138 H65        -7.6460   -5.0990   -0.2780 hc        1 MOL      0.167140
    139 H66        -9.3750   -4.7840   -0.5070 hc        1 MOL      0.167140
    140 N12        -6.8310   -0.4970    0.5510 n         1 MOL     -0.078377
    141 C43        -7.0660    0.8700    1.0600 c3        1 MOL      0.046163
    142 C44        -6.1600    1.8190    0.2490 c         1 MOL      0.359298
    143 O21        -6.4990    2.9670    0.1160 o         1 MOL     -0.517553
    144 C45        -6.8760    0.8750    2.6040 c3        1 MOL     -0.280161
    145 C46        -8.2960    0.3470    3.0840 c3        1 MOL      0.310348
    146 C47        -8.3490    0.2900    4.6370 c3        1 MOL      0.093394
    147 C48        -9.7540   -0.0120    5.1750 c3        1 MOL      0.046621
    148 N13        -9.7240   -0.3600    6.5660 n4        1 MOL     -0.209730
    149 H67        -6.6010   -1.2130    1.2270 hn        1 MOL      0.250680
    150 H68        -8.1150    1.1120    0.8730 h1        1 MOL      0.074582
    151 H69        -6.6470    1.8830    2.9540 hc        1 MOL      0.087365
    152 H70        -6.0680    0.1740    2.7650 hc        1 MOL      0.087365
    153 H71        -8.4900   -0.6510    2.6860 hc        1 MOL     -0.079600
    154 H72        -9.1200    0.9470    2.7040 hc        1 MOL     -0.079600
    155 H73        -8.0020    1.2310    5.0370 hc        1 MOL     -0.026443
    156 H74        -7.7590   -0.6020    4.8780 hc        1 MOL     -0.026443
    157 H75       -10.1970   -0.8570    4.6480 hx        1 MOL      0.054469
    158 H76       -10.3040    0.8870    4.9400 hx        1 MOL      0.054469
    159 H77       -10.6660   -0.4970    6.9160 hn        1 MOL      0.256752
    160 H78        -9.2740   -1.2430    6.7160 hn        1 MOL      0.256752
    161 H79        -9.2860    0.2980    7.1960 hn        1 MOL      0.256752
    162 N14        -4.9700    1.4550   -0.1400 n         1 MOL      0.078061
    163 C49        -3.9940    2.1790   -0.9760 c3        1 MOL     -0.431393
    164 C50        -4.5370    2.4490   -2.3620 c         1 MOL      0.550363
    165 O22        -4.5610    3.5220   -2.8630 o         1 MOL     -0.529049
    166 C51        -2.5930    1.4880   -1.0120 c3        1 MOL     -0.072453
    167 C52        -1.8900    1.5860    0.3810 c3        1 MOL     -0.028303
    168 C53        -0.6140    0.8070    0.5240 c         1 MOL      0.773176
    169 O23         0.4290    1.4140    0.8650 o         1 MOL     -0.745267
    170 O24        -0.5250   -0.3750    0.2730 o         1 MOL     -0.745267
    171 H80        -4.7440    0.5080    0.1370 hn        1 MOL      0.075544
    172 H81        -3.8220    3.1050   -0.4340 h1        1 MOL      0.187034
    173 H82        -1.8500    1.9050   -1.6910 hc        1 MOL      0.090577
    174 H83        -2.6800    0.4150   -1.2080 hc        1 MOL      0.090577
    175 H84        -2.5490    1.2820    1.1890 hc        1 MOL     -0.019848
    176 H85        -1.6980    2.6550    0.4930 hc        1 MOL     -0.019848
    177 N15        -5.2530    1.4890   -3.0120 n         1 MOL     -0.091078
    178 C54        -5.8950    1.7170   -4.2320 c3        1 MOL     -0.408643
    179 H86        -6.8250    2.2580   -4.0570 h1        1 MOL      0.137754
    180 H87        -5.2470    2.3100   -4.8790 h1        1 MOL      0.137754
    181 H88        -6.1150    0.7640   -4.7120 h1        1 MOL      0.137754
    182 H89        -5.2960    0.5940   -2.5380 hn        1 MOL      0.159788
    183 Ca1         2.0480   -0.6200    0.9570 Ca        1 MOL      1.692385
    184 O25         1.4050   -3.1610    1.8420 oh        1 MOL     -0.847355
    185 H90         1.4490   -3.7190    1.0610 ho        1 MOL      0.394609
    186 H91         2.2300   -3.3200    2.2900 ho        1 MOL      0.394609
    187 O26         0.4430   -0.5490    3.1600 oh        1 MOL     -0.847355
    188 H92         1.0540   -0.1150    3.7640 ho        1 MOL      0.394609
    189 H93        -0.1790   -1.0010    3.7320 ho        1 MOL      0.394609
@<TRIPOS>BOND
     1    1    2 1   
     2    1    4 1   
     3    1    5 1   
     4    1    6 1   
     5    2    3 2   
     6    2    7 1   
     7    7    8 1   
     8    7   15 1   
     9    8    9 1   
    10    8   11 1   
    11    8   16 1   
    12    9   10 2   
    13    9   19 1   
    14   11   12 1   
    15   11   17 1   
    16   11   18 1   
    17   12   13 1   
    18   12   14 1   
    19   19   20 1   
    20   19   28 1   
    21   20   21 1   
    22   20   23 1   
    23   20   29 1   
    24   21   22 2   
    25   21   41 1   
    26   23   24 1   
    27   23   30 1   
    28   23   31 1   
    29   24   25 1   
    30   24   32 1   
    31   24   33 1   
    32   25   26 1   
    33   25   34 1   
    34   25   35 1   
    35   26   27 1   
    36   26   36 1   
    37   26   37 1   
    38   27   38 1   
    39   27   39 1   
    40   27   40 1   
    41   41   42 1   
    42   41   49 1   
    43   42   43 1   
    44   42   45 1   
    45   42   50 1   
    46   43   44 2   
    47   43   53 1   
    48   45   46 1   
    49   45   51 1   
    50   45   52 1   
    51   46   47 1   
    52   46   48 1   
    53   53   54 1   
    54   53   57 1   
    55   54   55 1   
    56   54   58 1   
    57   54   59 1   
    58   55   56 2   
    59   55   60 1   
    60   60   61 1   
    61   60   68 1   
    62   61   62 1   
    63   61   64 1   
    64   61   69 1   
    65   62   63 2   
    66   62   72 1   
    67   64   65 1   
    68   64   70 1   
    69   64   71 1   
    70   65   66 1   
    71   65   67 1   
    72   72   73 1   
    73   72   76 1   
    74   73   74 1   
    75   73   77 1   
    76   73   78 1   
    77   74   75 2   
    78   74   79 1   
    79   79   80 1   
    80   79   86 1   
    81   80   81 1   
    82   80   83 1   
    83   80   87 1   
    84   81   82 2   
    85   81   93 1   
    86   83   84 1   
    87   83   85 1   
    88   83   88 1   
    89   84   90 1   
    90   84   91 1   
    91   84   92 1   
    92   85   89 1   
    93   93   94 1   
    94   93  101 1   
    95   94   95 1   
    96   94   97 1   
    97   94  102 1   
    98   95   96 2   
    99   95  112 1   
   100   97   98 1   
   101   97   99 1   
   102   97  103 1   
   103   98  100 1   
   104   98  104 1   
   105   98  105 1   
   106   99  106 1   
   107   99  107 1   
   108   99  108 1   
   109  100  109 1   
   110  100  110 1   
   111  100  111 1   
   112  112  113 1   
   113  112  119 1   
   114  113  114 1   
   115  113  116 1   
   116  113  120 1   
   117  114  115 2   
   118  114  126 1   
   119  116  117 1   
   120  116  118 1   
   121  116  121 1   
   122  117  123 1   
   123  117  124 1   
   124  117  125 1   
   125  118  122 1   
   126  126  127 1   
   127  126  133 1   
   128  127  128 1   
   129  127  130 1   
   130  127  134 1   
   131  128  129 2   
   132  128  140 1   
   133  130  131 1   
   134  130  132 1   
   135  130  135 1   
   136  131  137 1   
   137  131  138 1   
   138  131  139 1   
   139  132  136 1   
   140  140  141 1   
   141  140  149 1   
   142  141  142 1   
   143  141  144 1   
   144  141  150 1   
   145  142  143 2   
   146  142  162 1   
   147  144  145 1   
   148  144  151 1   
   149  144  152 1   
   150  145  146 1   
   151  145  153 1   
   152  145  154 1   
   153  146  147 1   
   154  146  155 1   
   155  146  156 1   
   156  147  148 1   
   157  147  157 1   
   158  147  158 1   
   159  148  159 1   
   160  148  160 1   
   161  148  161 1   
   162  162  163 1   
   163  162  171 1   
   164  163  164 1   
   165  163  166 1   
   166  163  172 1   
   167  164  165 2   
   168  164  177 1   
   169  166  167 1   
   170  166  173 1   
   171  166  174 1   
   172  167  168 1   
   173  167  175 1   
   174  167  176 1   
   175  168  169 1   
   176  168  170 1   
   177  177  178 1   
   178  177  182 1   
   179  178  179 1   
   180  178  180 1   
   181  178  181 1   
   182  184  185 1   
   183  184  186 1   
   184  187  188 1   
   185  187  189 1   
@<TRIPOS>SUBSTRUCTURE
     1 MOL         1 TEMP              0 ****  ****    0 ROOT
