@<TRIPOS>MOLECULE
MOL
  179   176     1     0     0
SMALL
resp


@<TRIPOS>ATOM
      1 C1          1.8940    2.6880    5.9070 c3        1 MOL     -0.136400
      2 C2          1.3820    2.6000    4.4680 c         1 MOL      0.705017
      3 O1          2.1980    2.6270    3.5410 o         1 MOL     -0.618232
      4 H1          1.6270    1.7790    6.4440 hc        1 MOL      0.024826
      5 H2          2.9780    2.8000    5.9010 hc        1 MOL      0.024826
      6 H3          1.4430    3.5480    6.4020 hc        1 MOL      0.024826
      7 N1          0.0940    2.4790    4.2780 n         1 MOL     -0.532903
      8 C3         -0.6310    2.2980    3.0130 c3        1 MOL      0.071759
      9 C4         -0.7950    3.6460    2.3450 c         1 MOL      0.504915
     10 O2         -1.4670    4.4880    2.8980 o         1 MOL     -0.553364
     11 C5         -2.0010    1.5950    3.3390 c3        1 MOL     -0.312365
     12 C6         -2.8360    1.4640    2.0620 c         1 MOL      0.871550
     13 O3         -2.1380    1.3930    1.0180 o         1 MOL     -0.747753
     14 O4         -4.0550    1.2120    2.1290 o         1 MOL     -0.747753
     15 H4         -0.4880    2.4920    5.1050 hn        1 MOL      0.305231
     16 H5         -0.0990    1.5990    2.3730 h1        1 MOL      0.092747
     17 H6         -2.5480    2.2030    4.0540 hc        1 MOL      0.074303
     18 H7         -1.8040    0.6510    3.8430 hc        1 MOL      0.074303
     19 N2         -0.1820    3.9480    1.1950 n         1 MOL     -0.218492
     20 C7         -0.0700    5.2860    0.5850 c3        1 MOL     -0.042181
     21 C8         -1.2720    5.7230   -0.2580 c         1 MOL      0.455567
     22 O5         -1.7010    6.8850   -0.1770 o         1 MOL     -0.559626
     23 C9          1.3200    5.3250    0.0500 c3        1 MOL     -0.010834
     24 C10         1.7120    6.7320   -0.4330 c3        1 MOL     -0.207801
     25 C11         3.1510    6.6020   -1.0530 c3        1 MOL      0.210027
     26 C12         3.8140    7.9570   -1.2010 c3        1 MOL      0.084204
     27 N3          5.2210    7.7990   -1.7740 n4        1 MOL     -0.508576
     28 H8          0.3590    3.2090    0.7830 hn        1 MOL      0.113344
     29 H9         -0.0710    6.0570    1.3640 h1        1 MOL      0.078391
     30 H10         1.3110    4.6750   -0.8340 hc        1 MOL      0.079713
     31 H11         1.9980    4.9740    0.8160 hc        1 MOL      0.079713
     32 H12         1.8370    7.4440    0.3820 hc        1 MOL      0.067601
     33 H13         1.0190    7.0770   -1.1940 hc        1 MOL      0.067601
     34 H14         3.0170    6.1040   -2.0080 hc        1 MOL     -0.043490
     35 H15         3.6840    5.9300   -0.3850 hc        1 MOL     -0.043490
     36 H16         3.8380    8.4340   -0.2180 hx        1 MOL      0.062384
     37 H17         3.2130    8.5600   -1.8760 hx        1 MOL      0.062384
     38 H18         5.5230    8.7460   -1.9310 hn        1 MOL      0.364515
     39 H19         5.8180    7.3370   -1.0970 hn        1 MOL      0.364515
     40 H20         5.2220    7.3290   -2.6730 hn        1 MOL      0.364515
     41 N4         -1.8540    4.8600   -1.0670 n         1 MOL     -0.311298
     42 C13        -2.9460    5.1290   -2.0220 c3        1 MOL      0.036746
     43 C14        -4.3390    5.0180   -1.4130 c         1 MOL      0.470459
     44 O6         -5.2430    5.6600   -1.9600 o         1 MOL     -0.546955
     45 C15        -2.7900    4.1250   -3.2040 c3        1 MOL     -0.121824
     46 C16        -2.8640    2.6210   -2.9310 c         1 MOL      0.793162
     47 O7         -2.8130    1.7700   -3.8200 o         1 MOL     -0.760974
     48 O8         -2.7890    2.2000   -1.7700 o         1 MOL     -0.760974
     49 H21        -1.5020    3.9110   -1.1200 hn        1 MOL      0.254717
     50 H22        -2.9170    6.1090   -2.4980 h1        1 MOL      0.078038
     51 H23        -1.8400    4.3730   -3.6790 hc        1 MOL      0.027091
     52 H24        -3.5590    4.3190   -3.9480 hc        1 MOL      0.027091
     53 N5         -4.5670    4.1400   -0.3920 n         1 MOL     -0.081419
     54 C17        -5.7970    3.9750    0.3280 c3        1 MOL     -0.139811
     55 C18        -6.6810    2.7790    0.0150 c         1 MOL      0.570623
     56 O9         -7.8570    2.9430   -0.3790 o         1 MOL     -0.572070
     57 H25        -3.7960    3.5210   -0.2190 hn        1 MOL      0.095695
     58 H26        -6.1680    5.0020    0.3480 h1        1 MOL      0.067889
     59 H27        -5.5710    3.8160    1.3860 h1        1 MOL      0.067889
     60 N6         -6.0670    1.6320    0.0310 n         1 MOL     -0.416483
     61 C19        -6.6060    0.5140   -0.6760 c3        1 MOL      0.014260
     62 C20        -6.5920   -0.8170    0.0990 c         1 MOL      0.234527
     63 O10        -7.1420   -1.7570   -0.4350 o         1 MOL     -0.428705
     64 C21        -5.8480    0.3250   -2.0780 c3        1 MOL     -0.027217
     65 C22        -4.7480   -0.6840   -2.1070 c         1 MOL      0.416180
     66 N7         -4.9480   -1.7810   -2.8500 n         1 MOL     -0.547666
     67 O11        -3.7130   -0.5860   -1.4390 o         1 MOL     -0.539980
     68 H28        -5.1610    1.6990    0.4830 hn        1 MOL      0.281027
     69 H29        -7.6310    0.7140   -0.9970 h1        1 MOL      0.127845
     70 H30        -5.4590    1.2560   -2.4990 hc        1 MOL      0.062574
     71 H31        -6.5500    0.0320   -2.8530 hc        1 MOL      0.062574
     72 H32        -5.8010   -1.8100   -3.3950 hn        1 MOL      0.303843
     73 H33        -4.1400   -2.3050   -3.1560 hn        1 MOL      0.303843
     74 N8         -6.1480   -0.7780    1.3090 n         1 MOL     -0.074604
     75 C23        -6.1940   -2.0350    2.1140 c3        1 MOL     -0.369287
     76 C24        -5.0520   -3.0980    1.9590 c         1 MOL      0.609874
     77 O12        -5.0800   -4.0950    2.6790 o         1 MOL     -0.556650
     78 H34        -5.8790    0.0730    1.7840 hn        1 MOL      0.271126
     79 H35        -7.1440   -2.5470    2.0050 h1        1 MOL      0.151954
     80 H36        -6.1080   -1.6070    3.1190 h1        1 MOL      0.151954
     81 N9         -4.1020   -2.8490    1.0090 n         1 MOL     -0.241591
     82 C25        -2.9840   -3.7370    0.7630 c3        1 MOL      0.264008
     83 C26        -1.6630   -2.9460    0.8970 c         1 MOL      0.300370
     84 O13        -1.6380   -1.7470    0.5010 o         1 MOL     -0.634366
     85 C27        -3.1900   -4.4140   -0.6250 c3        1 MOL      0.030593
     86 C28        -4.3860   -5.3600   -0.7330 ca        1 MOL     -0.160948
     87 C29        -5.6720   -4.8460   -0.8140 ca        1 MOL     -0.035116
     88 C30        -4.1630   -6.7660   -0.5990 ca        1 MOL     -0.035116
     89 C31        -6.8030   -5.7300   -0.9500 ca        1 MOL     -0.314711
     90 C32        -5.3230   -7.5950   -0.6270 ca        1 MOL     -0.314711
     91 C33        -6.6560   -7.1060   -0.8050 ca        1 MOL      0.404000
     92 O14        -7.7100   -7.9270   -0.9330 oh        1 MOL     -0.466109
     93 H37        -4.2080   -1.9870    0.5020 hn        1 MOL      0.162888
     94 H38        -2.9210   -4.5170    1.5230 h1        1 MOL      0.007354
     95 H39        -2.2620   -4.8860   -0.9580 hc        1 MOL      0.011507
     96 H40        -3.1930   -3.6140   -1.3730 hc        1 MOL      0.011507
     97 H41        -5.7680   -3.8030   -1.0750 ha        1 MOL      0.083318
     98 H42        -3.1660   -7.1800   -0.6140 ha        1 MOL      0.083318
     99 H43        -7.7480   -5.2280   -1.0770 ha        1 MOL      0.144319
    100 H44        -5.2270   -8.6730   -0.5830 ha        1 MOL      0.144319
    101 H45        -7.4780   -8.8400   -0.7460 ho        1 MOL      0.344940
    102 N10        -0.5020   -3.5460    1.1560 n         1 MOL     -0.374255
    103 C34         0.8510   -2.8660    1.1110 c3        1 MOL      0.165027
    104 C35         1.8440   -3.8820    0.4990 c         1 MOL      0.354199
    105 O15         1.5800   -5.1070    0.5760 o         1 MOL     -0.521645
    106 C36         1.2710   -2.3590    2.4670 c3        1 MOL     -0.090790
    107 C37         0.1000   -1.7530    3.2030 c3        1 MOL      0.178424
    108 C38         2.4140   -1.3680    2.3160 c3        1 MOL     -0.121819
    109 C39         0.4720   -1.2060    4.5920 c3        1 MOL     -0.233434
    110 H46        -0.5170   -4.5230    1.3990 hn        1 MOL      0.273615
    111 H47         0.8030   -2.0020    0.4470 h1        1 MOL      0.081056
    112 H48         1.6450   -3.1670    3.0930 hc        1 MOL      0.034418
    113 H49        -0.6920   -2.4800    3.3570 hc        1 MOL     -0.001300
    114 H50        -0.3140   -0.9300    2.6250 hc        1 MOL     -0.001300
    115 H51         2.8130   -1.0850    3.2910 hc        1 MOL      0.037504
    116 H52         3.3300   -1.7890    1.9200 hc        1 MOL      0.037504
    117 H53         2.0440   -0.5530    1.6930 hc        1 MOL      0.037504
    118 H54         1.2760   -0.4650    4.6290 hc        1 MOL      0.049208
    119 H55        -0.4130   -0.7530    5.0390 hc        1 MOL      0.049208
    120 H56         0.8110   -2.0530    5.1850 hc        1 MOL      0.049208
    121 N11         3.0360   -3.3850    0.0930 n         1 MOL     -0.088868
    122 C40         4.2380   -4.0720   -0.4120 c3        1 MOL     -0.071204
    123 C41         5.5770   -3.5310    0.1860 c         1 MOL      0.444658
    124 O16         5.6470   -2.4140    0.6850 o         1 MOL     -0.350627
    125 C42         4.1930   -3.9850   -1.9770 c3        1 MOL     -0.101114
    126 O17         4.4430   -2.6560   -2.3260 oh        1 MOL     -0.408678
    127 H57         3.1190   -2.3870   -0.0180 hn        1 MOL      0.149674
    128 H58         4.1850   -5.1460   -0.2110 h1        1 MOL      0.093847
    129 H59         3.2370   -4.1520   -2.4740 h1        1 MOL      0.088878
    130 H60         4.9130   -4.6720   -2.4120 h1        1 MOL      0.088878
    131 H61         4.4930   -2.6330   -3.2800 ho        1 MOL      0.376392
    132 N12         6.6660   -4.3590    0.1150 n         1 MOL     -0.409935
    133 C43         7.9930   -4.0160    0.5060 c3        1 MOL      0.050583
    134 C44         8.4220   -2.7920   -0.2530 c         1 MOL      0.607707
    135 O18         9.0270   -1.9460    0.3510 o         1 MOL     -0.530719
    136 C45         8.8610   -5.2520    0.2460 c3        1 MOL     -0.415680
    137 H62         6.5020   -5.2940   -0.2190 hn        1 MOL      0.300473
    138 H63         8.0690   -3.8180    1.5750 h1        1 MOL      0.112860
    139 H64         9.9290   -5.0190    0.3060 hc        1 MOL      0.125062
    140 H65         8.6180   -6.0680    0.9250 hc        1 MOL      0.125062
    141 H66         8.6950   -5.7610   -0.6980 hc        1 MOL      0.125062
    142 N13         8.0330   -2.6960   -1.5250 n         1 MOL     -0.531044
    143 C46         8.2770   -1.5230   -2.3600 c3        1 MOL      0.400394
    144 C47         7.4180   -0.2520   -2.0530 c         1 MOL      0.272181
    145 O19         7.8450    0.8860   -2.2120 o         1 MOL     -0.523120
    146 C48         8.1700   -1.8890   -3.8050 c3        1 MOL     -0.410828
    147 H67         7.4570   -3.4100   -1.9380 hn        1 MOL      0.271586
    148 H68         9.2920   -1.2470   -2.0830 h1        1 MOL      0.045171
    149 H69         9.1530   -2.3200   -4.0030 hc        1 MOL      0.105600
    150 H70         7.3710   -2.6240   -3.8610 hc        1 MOL      0.105600
    151 H71         7.9740   -1.0670   -4.4780 hc        1 MOL      0.105600
    152 N14         6.2540   -0.4130   -1.4010 n         1 MOL     -0.006378
    153 C49         5.5230    0.6600   -0.7460 c3        1 MOL     -0.119431
    154 C50         5.9800    0.9950    0.7050 c         1 MOL      0.526000
    155 O20         5.8970    2.1550    1.0260 o         1 MOL     -0.566067
    156 C51         3.9930    0.4310   -0.8490 c3        1 MOL      0.269884
    157 C52         3.1020    1.4860   -0.3180 c3        1 MOL     -0.443163
    158 C53         1.6440    1.1540   -0.5880 c         1 MOL      0.971673
    159 O21         0.6590    1.9140   -0.3810 o         1 MOL     -0.801837
    160 O22         1.3780   -0.0040   -1.0420 o         1 MOL     -0.801837
    161 H72         5.8830   -1.3350   -1.2320 hn        1 MOL     -0.142078
    162 H73         5.7620    1.5510   -1.3370 h1        1 MOL      0.084180
    163 H74         3.8150   -0.4980   -0.3090 hc        1 MOL     -0.040983
    164 H75         3.7930    0.2100   -1.8930 hc        1 MOL     -0.040983
    165 H76         3.4350    2.3380   -0.8970 hc        1 MOL      0.101133
    166 H77         3.1070    1.7040    0.7500 hc        1 MOL      0.101133
    167 N15         6.6440    0.1060    1.4130 n         1 MOL     -0.161627
    168 C54         7.2580    0.4160    2.7660 c3        1 MOL     -0.247923
    169 H78         7.1400   -0.4460    3.4240 h1        1 MOL      0.112356
    170 H79         8.3180    0.6360    2.6430 h1        1 MOL      0.112356
    171 H80         6.7550    1.2780    3.2050 h1        1 MOL      0.112356
    172 H81         6.7710   -0.8120    1.0080 hn        1 MOL      0.157921
    173 Ca1        -1.2650    0.2800   -1.1280 Ca        1 MOL      1.754679
    174 O23        -0.9530   -2.0440   -2.5570 oh        1 MOL     -0.822037
    175 H82        -1.6650   -2.6100   -2.8600 ho        1 MOL      0.399145
    176 H83        -0.1540   -2.5540   -2.7200 ho        1 MOL      0.399145
    177 O24         0.1800    1.1470   -3.4610 oh        1 MOL     -0.822037
    178 H84         0.9440    0.5850   -3.6060 ho        1 MOL      0.399145
    179 H85        -0.4050    0.9470   -4.1860 ho        1 MOL      0.399145
@<TRIPOS>BOND
     1    1    2 1   
     2    1    4 1   
     3    1    5 1   
     4    1    6 1   
     5    2    3 2   
     6    2    7 1   
     7    7    8 1   
     8    7   15 1   
     9    8    9 1   
    10    8   11 1   
    11    8   16 1   
    12    9   10 2   
    13    9   19 1   
    14   11   12 1   
    15   11   17 1   
    16   11   18 1   
    17   12   13 1   
    18   12   14 1   
    19   19   20 1   
    20   19   28 1   
    21   20   21 1   
    22   20   23 1   
    23   20   29 1   
    24   21   22 2   
    25   21   41 1   
    26   23   24 1   
    27   23   30 1   
    28   23   31 1   
    29   24   25 1   
    30   24   32 1   
    31   24   33 1   
    32   25   26 1   
    33   25   34 1   
    34   25   35 1   
    35   26   27 1   
    36   26   36 1   
    37   26   37 1   
    38   27   38 1   
    39   27   39 1   
    40   27   40 1   
    41   41   42 1   
    42   41   49 1   
    43   42   43 1   
    44   42   45 1   
    45   42   50 1   
    46   43   44 2   
    47   43   53 1   
    48   45   46 1   
    49   45   51 1   
    50   45   52 1   
    51   46   47 1   
    52   46   48 1   
    53   53   54 1   
    54   53   57 1   
    55   54   55 1   
    56   54   58 1   
    57   54   59 1   
    58   55   56 2   
    59   55   60 1   
    60   60   61 1   
    61   60   68 1   
    62   61   62 1   
    63   61   64 1   
    64   61   69 1   
    65   62   63 2   
    66   62   74 1   
    67   64   65 1   
    68   64   70 1   
    69   64   71 1   
    70   65   66 1   
    71   65   67 2   
    72   66   72 1   
    73   66   73 1   
    74   74   75 1   
    75   74   78 1   
    76   75   76 1   
    77   75   79 1   
    78   75   80 1   
    79   76   77 2   
    80   76   81 1   
    81   81   82 1   
    82   81   93 1   
    83   82   83 1   
    84   82   85 1   
    85   82   94 1   
    86   83   84 2   
    87   83  102 1   
    88   85   86 1   
    89   85   95 1   
    90   85   96 1   
    91   86   87 ar  
    92   86   88 ar  
    93   87   89 ar  
    94   87   97 1   
    95   88   90 ar  
    96   88   98 1   
    97   89   91 ar  
    98   89   99 1   
    99   90   91 ar  
   100   90  100 1   
   101   91   92 1   
   102   92  101 1   
   103  102  103 1   
   104  102  110 1   
   105  103  104 1   
   106  103  106 1   
   107  103  111 1   
   108  104  105 2   
   109  104  121 1   
   110  106  107 1   
   111  106  108 1   
   112  106  112 1   
   113  107  109 1   
   114  107  113 1   
   115  107  114 1   
   116  108  115 1   
   117  108  116 1   
   118  108  117 1   
   119  109  118 1   
   120  109  119 1   
   121  109  120 1   
   122  121  122 1   
   123  121  127 1   
   124  122  123 1   
   125  122  125 1   
   126  122  128 1   
   127  123  124 2   
   128  123  132 1   
   129  125  126 1   
   130  125  129 1   
   131  125  130 1   
   132  126  131 1   
   133  132  133 1   
   134  132  137 1   
   135  133  134 1   
   136  133  136 1   
   137  133  138 1   
   138  134  135 2   
   139  134  142 1   
   140  136  139 1   
   141  136  140 1   
   142  136  141 1   
   143  142  143 1   
   144  142  147 1   
   145  143  144 1   
   146  143  146 1   
   147  143  148 1   
   148  144  145 2   
   149  144  152 1   
   150  146  149 1   
   151  146  150 1   
   152  146  151 1   
   153  152  153 1   
   154  152  161 1   
   155  153  154 1   
   156  153  156 1   
   157  153  162 1   
   158  154  155 2   
   159  154  167 1   
   160  156  157 1   
   161  156  163 1   
   162  156  164 1   
   163  157  158 1   
   164  157  165 1   
   165  157  166 1   
   166  158  159 1   
   167  158  160 1   
   168  167  168 1   
   169  167  172 1   
   170  168  169 1   
   171  168  170 1   
   172  168  171 1   
   173  174  175 1   
   174  174  176 1   
   175  177  178 1   
   176  177  179 1   
@<TRIPOS>SUBSTRUCTURE
     1 MOL         1 TEMP              0 ****  ****    0 ROOT
