@<TRIPOS>MOLECULE
MOL
  189   185     1     0     0
SMALL
resp


@<TRIPOS>ATOM
      1 C1          0.0210   -4.0650    5.7370 c3        1 MOL     -0.507717
      2 C2          0.5480   -3.7100    4.3440 c         1 MOL      0.737062
      3 O1          0.6650   -2.4780    4.1130 o         1 MOL     -0.578270
      4 H1          0.8090   -3.9070    6.4730 hc        1 MOL      0.132081
      5 H2         -0.8320   -3.4300    5.9760 hc        1 MOL      0.132081
      6 H3         -0.2870   -5.1100    5.7540 hc        1 MOL      0.132081
      7 N1          0.9440   -4.6410    3.4520 n         1 MOL     -0.583558
      8 C3          1.5950   -4.2000    2.2380 c3        1 MOL      0.284034
      9 C4          1.3750   -5.1610    1.0420 c         1 MOL      0.348631
     10 O2          1.4560   -6.3920    1.1640 o         1 MOL     -0.561826
     11 C5          3.0710   -4.0780    2.4130 c3        1 MOL     -0.248969
     12 C6          3.8070   -3.0630    1.5450 c         1 MOL      0.840977
     13 O3          4.8970   -2.7250    1.9750 o         1 MOL     -0.703315
     14 O4          3.3930   -2.7500    0.4020 o         1 MOL     -0.703315
     15 H4          1.0510   -5.6090    3.6980 hn        1 MOL      0.316455
     16 H5          1.2290   -3.2240    1.9130 h1        1 MOL     -0.041055
     17 H6          3.5600   -5.0500    2.2810 hc        1 MOL      0.045394
     18 H7          3.2670   -3.7730    3.4380 hc        1 MOL      0.045394
     19 N2          1.1280   -4.6040   -0.1780 n         1 MOL     -0.244100
     20 C7          0.9310   -5.4080   -1.4160 c3        1 MOL     -0.017472
     21 C8          2.1180   -5.1570   -2.3990 c         1 MOL      0.571033
     22 O5          2.4460   -6.0220   -3.1800 o         1 MOL     -0.601395
     23 C9         -0.4150   -5.0270   -2.1540 c3        1 MOL      0.311952
     24 C10        -1.4910   -4.4220   -1.1820 c3        1 MOL     -0.145821
     25 C11        -0.9600   -6.2920   -2.7990 c3        1 MOL     -0.304402
     26 C12        -2.9060   -4.4380   -1.7270 c3        1 MOL     -0.136069
     27 H8          1.0730   -3.5960   -0.1790 hn        1 MOL      0.241293
     28 H9          0.9540   -6.4840   -1.2430 h1        1 MOL      0.060978
     29 H10        -0.1360   -4.2330   -2.8600 hc        1 MOL     -0.018190
     30 H11        -1.2300   -3.4000   -0.9110 hc        1 MOL      0.064338
     31 H12        -1.5690   -5.0190   -0.2700 hc        1 MOL      0.064338
     32 H13        -0.1970   -6.6110   -3.5210 hc        1 MOL      0.052790
     33 H14        -1.1500   -7.1030   -2.1020 hc        1 MOL      0.052790
     34 H15        -1.8200   -6.0350   -3.4330 hc        1 MOL      0.052790
     35 H16        -2.9620   -4.0980   -2.7520 hc        1 MOL      0.036388
     36 H17        -3.3570   -5.4300   -1.6490 hc        1 MOL      0.036388
     37 H18        -3.4490   -3.7350   -1.0890 hc        1 MOL      0.036388
     38 N3          2.7700   -3.9470   -2.4610 n         1 MOL     -0.425736
     39 C13         3.6090   -3.5380   -3.5950 c3        1 MOL      0.195015
     40 C14         4.9850   -3.1450   -3.1190 c         1 MOL      0.345393
     41 O6          5.7870   -2.7080   -3.9650 o         1 MOL     -0.543681
     42 C15         2.8820   -2.3590   -4.2800 c3        1 MOL     -0.294364
     43 C16         2.3660   -1.2960   -3.3390 c         1 MOL      0.783539
     44 O7          2.9790   -0.9760   -2.3000 o         1 MOL     -0.707945
     45 O8          1.3230   -0.6640   -3.6340 o         1 MOL     -0.707945
     46 H19         2.5890   -3.2930   -1.7100 hn        1 MOL      0.171965
     47 H20         3.7800   -4.3030   -4.3500 h1        1 MOL      0.075106
     48 H21         1.9930   -2.8260   -4.7010 hc        1 MOL      0.057874
     49 H22         3.5890   -1.9790   -5.0160 hc        1 MOL      0.057874
     50 N4          5.2550   -3.2510   -1.8110 n         1 MOL     -0.266897
     51 C17         6.6170   -2.9420   -1.2840 c3        1 MOL     -0.177380
     52 C18         6.9530   -1.4520   -1.3610 c         1 MOL      0.451760
     53 O9          8.1510   -1.1680   -1.1720 o         1 MOL     -0.604150
     54 H23         4.5800   -3.4980   -1.1110 hn        1 MOL      0.193946
     55 H24         7.2840   -3.6790   -1.7310 h1        1 MOL      0.120628
     56 H25         6.5440   -3.1610   -0.2100 h1        1 MOL      0.120628
     57 N5          6.0860   -0.4910   -1.7430 n         1 MOL     -0.093046
     58 C19         6.4630    0.9000   -2.1870 c3        1 MOL      0.008818
     59 C20         7.0410    1.7780   -0.9830 c         1 MOL      0.405256
     60 O10         7.8050    2.7540   -1.2440 o         1 MOL     -0.567692
     61 C21         5.4320    1.7290   -2.9380 c3        1 MOL     -0.419814
     62 C22         4.1670    1.9140   -2.1350 c         1 MOL      0.928573
     63 O11         4.1010    1.3630   -0.9900 o         1 MOL     -0.707483
     64 O12         3.2410    2.5620   -2.5870 o         1 MOL     -0.707483
     65 H26         5.0920   -0.6360   -1.6190 hn        1 MOL      0.176291
     66 H27         7.2580    0.8030   -2.9210 h1        1 MOL      0.096063
     67 H28         5.2960    1.0780   -3.8010 hc        1 MOL      0.113626
     68 H29         5.7850    2.7310   -3.1840 hc        1 MOL      0.113626
     69 N6          6.8410    1.4110    0.2850 n         1 MOL     -0.232683
     70 C23         7.1590    2.2750    1.4500 c3        1 MOL     -0.133485
     71 C24         6.1860    3.3910    1.6510 c         1 MOL      0.619884
     72 O13         6.5270    4.4230    2.1600 o         1 MOL     -0.631700
     73 H30         6.2870    0.5960    0.4760 hn        1 MOL      0.268408
     74 H31         8.1720    2.6550    1.2880 h1        1 MOL      0.070207
     75 H32         7.1930    1.5990    2.2960 h1        1 MOL      0.070207
     76 N7          4.9680    3.2660    1.1410 n         1 MOL     -0.424422
     77 C25         3.8110    4.1120    1.3390 c3        1 MOL      0.094550
     78 C26         2.6710    3.1850    1.6340 c         1 MOL      0.503674
     79 O14         2.7790    1.9500    1.6370 o         1 MOL     -0.568711
     80 C27         3.5200    5.0850    0.1880 c3        1 MOL     -0.392024
     81 C28         4.7260    6.0840    0.1840 c3        1 MOL     -0.084417
     82 C29         4.5640    7.2450   -0.7240 c         1 MOL      0.772763
     83 N8          5.6630    7.9560   -0.9980 n         1 MOL     -0.933502
     84 O15         3.4810    7.5370   -1.1890 o         1 MOL     -0.584644
     85 H33         4.7000    2.4620    0.5860 hn        1 MOL      0.322548
     86 H34         3.9160    4.7420    2.2210 h1        1 MOL      0.089622
     87 H35         2.6710    5.6880    0.5020 hc        1 MOL      0.142637
     88 H36         3.5960    4.7490   -0.8410 hc        1 MOL      0.142637
     89 H37         5.6520    5.5920   -0.1260 hc        1 MOL      0.053004
     90 H38         4.7440    6.4810    1.2050 hc        1 MOL      0.053004
     91 H39         6.5230    7.7370   -0.5210 hn        1 MOL      0.378884
     92 H40         5.7010    8.5790   -1.7860 hn        1 MOL      0.378884
     93 N9          1.4900    3.7600    1.9160 n         1 MOL     -0.512988
     94 C30         0.2660    2.9830    2.1230 c3        1 MOL     -0.077514
     95 C31        -0.9130    3.4120    1.2290 c         1 MOL      0.529485
     96 O16        -1.4420    4.5390    1.3030 o         1 MOL     -0.593107
     97 C32        -0.1800    3.0210    3.6290 c3        1 MOL      0.165148
     98 C33        -1.2130    2.0300    3.9820 c3        1 MOL     -0.246575
     99 C34         1.1200    2.7110    4.5320 c3        1 MOL     -0.246575
    100 H41         1.4970    4.7660    2.0050 hn        1 MOL      0.323228
    101 H42         0.4250    1.9230    1.9010 h1        1 MOL      0.208107
    102 H43        -0.5100    3.9900    4.0000 hc        1 MOL     -0.010667
    103 H44        -1.4830    2.0560    5.0420 hc        1 MOL      0.051774
    104 H45        -2.0410    2.1290    3.2840 hc        1 MOL      0.051774
    105 H46        -0.7230    1.0690    3.8300 hc        1 MOL      0.051774
    106 H47         0.8780    2.6330    5.5970 hc        1 MOL      0.051774
    107 H48         1.6460    1.7800    4.3240 hc        1 MOL      0.051774
    108 H49         1.8790    3.4940    4.4860 hc        1 MOL      0.051774
    109 N10        -1.4670    2.4780    0.5370 n         1 MOL     -0.343127
    110 C35        -2.6520    2.5170   -0.2200 c3        1 MOL      0.097224
    111 C36        -3.8790    2.1520    0.6610 c         1 MOL      0.177997
    112 O17        -3.8230    1.4410    1.6160 o         1 MOL     -0.203117
    113 C37        -2.5550    1.5880   -1.4110 c3        1 MOL     -0.296289
    114 C38        -3.6180    1.7950   -2.4630 c         1 MOL      0.734041
    115 N11        -3.9340    3.0240   -2.7950 n         1 MOL     -0.813775
    116 O18        -4.1050    0.8730   -3.0720 o         1 MOL     -0.560597
    117 H50        -1.0850    1.5400    0.5330 hn        1 MOL      0.341351
    118 H51        -2.7510    3.5470   -0.5390 h1        1 MOL      0.038941
    119 H52        -2.5420    0.5590   -1.0310 hc        1 MOL      0.119169
    120 H53        -1.5460    1.7840   -1.7810 hc        1 MOL      0.119169
    121 H54        -3.2400    3.7420   -2.6120 hn        1 MOL      0.350167
    122 H55        -4.4170    3.1900   -3.6620 hn        1 MOL      0.350167
    123 N12        -5.0740    2.5090    0.1800 n         1 MOL     -0.125927
    124 C39        -6.3350    2.3300    0.9020 c3        1 MOL      0.069669
    125 C40        -6.6260    0.8330    1.0770 c         1 MOL      0.536724
    126 O19        -6.9330    0.5090    2.1990 o         1 MOL     -0.599171
    127 C41        -7.5010    3.1020    0.1950 c3        1 MOL     -0.248894
    128 C42        -7.3810    3.1760   -1.3100 ca        1 MOL      0.064936
    129 C43        -7.1640    4.4440   -1.9060 ca        1 MOL     -0.088645
    130 C44        -7.6570    2.0800   -2.1670 ca        1 MOL     -0.088645
    131 C45        -7.1700    4.5860   -3.3040 ca        1 MOL     -0.305555
    132 C46        -7.6180    2.2110   -3.5450 ca        1 MOL     -0.305555
    133 C47        -7.3610    3.4640   -4.1340 ca        1 MOL      0.409617
    134 O20        -7.3440    3.6840   -5.4650 oh        1 MOL     -0.578242
    135 H56        -5.1080    3.1270   -0.6210 hn        1 MOL      0.132690
    136 H57        -6.1920    2.6990    1.9130 h1        1 MOL      0.058942
    137 H58        -7.4460    4.1330    0.5350 hc        1 MOL      0.086519
    138 H59        -8.5000    2.7500    0.4520 hc        1 MOL      0.086519
    139 H60        -7.0040    5.2930   -1.2670 ha        1 MOL      0.090973
    140 H61        -7.6840    1.0670   -1.7940 ha        1 MOL      0.090973
    141 H62        -7.1150    5.5320   -3.8290 ha        1 MOL      0.138012
    142 H63        -7.6750    1.3610   -4.2040 ha        1 MOL      0.138012
    143 H64        -7.4200    2.8340   -5.9120 ho        1 MOL      0.418673
    144 N13        -6.3560   -0.0460    0.1310 n         1 MOL     -0.285042
    145 C48        -6.3870   -1.5430    0.2630 c3        1 MOL     -0.092788
    146 C49        -5.3970   -2.1180    1.2600 c         1 MOL      0.522073
    147 O21        -5.2810   -3.2870    1.5220 o         1 MOL     -0.569972
    148 C50        -6.0110   -2.1020   -1.1150 c3        1 MOL     -0.000296
    149 C51        -6.9330   -1.7040   -2.3330 c3        1 MOL     -0.103080
    150 C52        -8.3800   -2.0460   -2.0730 c         1 MOL      0.715655
    151 O22        -8.7190   -3.2400   -2.1270 o         1 MOL     -0.732585
    152 O23        -9.2100   -1.1310   -1.9830 o         1 MOL     -0.732585
    153 H65        -5.9700    0.2410   -0.7520 hn        1 MOL      0.199787
    154 H66        -7.4050   -1.8580    0.4730 h1        1 MOL      0.138033
    155 H67        -5.9920   -3.1800   -1.0040 hc        1 MOL      0.006135
    156 H68        -4.9980   -1.7810   -1.3580 hc        1 MOL      0.006135
    157 H69        -6.6390   -2.2100   -3.2580 hc        1 MOL      0.019299
    158 H70        -6.8260   -0.6540   -2.6050 hc        1 MOL      0.019299
    159 N14        -4.5880   -1.3060    1.8840 n         1 MOL     -0.279241
    160 C53        -3.6380   -1.6980    2.9640 c3        1 MOL      0.021772
    161 C54        -4.0140   -0.9930    4.2170 c         1 MOL      0.449692
    162 O24        -3.8690   -1.6360    5.2580 o         1 MOL     -0.570007
    163 C55        -2.1680   -1.3320    2.6160 c3        1 MOL     -0.009488
    164 C56        -1.5920   -2.0390    1.3890 c3        1 MOL     -0.145083
    165 C57        -0.3210   -1.3070    0.9050 c         1 MOL      0.816883
    166 O25         0.4410   -1.9330    0.1220 o         1 MOL     -0.756806
    167 O26        -0.1660   -0.0780    1.0420 o         1 MOL     -0.756806
    168 H71        -4.5030   -0.3760    1.4980 hn        1 MOL      0.121116
    169 H72        -3.6830   -2.7670    3.1650 h1        1 MOL      0.084422
    170 H73        -1.6190   -1.6460    3.5060 hc        1 MOL      0.039011
    171 H74        -2.1640   -0.2650    2.3980 hc        1 MOL      0.039011
    172 H75        -2.3210   -2.0780    0.5880 hc        1 MOL      0.039610
    173 H76        -1.4710   -3.1160    1.5820 hc        1 MOL      0.039610
    174 N15        -4.5290    0.2570    4.2080 n         1 MOL     -0.095806
    175 C58        -4.7790    1.0260    5.4250 c3        1 MOL     -0.312243
    176 H77        -3.9110    0.9620    6.0800 h1        1 MOL      0.102076
    177 H78        -4.9600    2.0690    5.1650 h1        1 MOL      0.102076
    178 H79        -5.6520    0.6230    5.9390 h1        1 MOL      0.102076
    179 H80        -4.6030    0.7930    3.3480 hn        1 MOL      0.132470
    180 Ca1         2.5090   -0.2890    0.1820 Ca        1 MOL      1.661484
    181 O27         2.2340   -0.6970    2.9970 oh        1 MOL     -0.906299
    182 H81         2.8710   -0.3690    3.6360 ho        1 MOL      0.412165
    183 H82         1.6040   -1.1880    3.5170 ho        1 MOL      0.412165
    184 O28         1.1680    1.3780   -1.5290 oh        1 MOL     -0.906299
    185 H83         1.9130    1.8790   -1.8550 ho        1 MOL      0.412165
    186 H84         0.8440    0.9110   -2.2910 ho        1 MOL      0.412165
    187 O29         4.8810   -0.1640    1.6520 oh        1 MOL     -0.906299
    188 H85         4.5960    0.1370    2.5140 ho        1 MOL      0.412165
    189 H86         4.9540   -1.1210    1.7470 ho        1 MOL      0.412165
@<TRIPOS>BOND
     1    1    2 1   
     2    1    4 1   
     3    1    5 1   
     4    1    6 1   
     5    2    3 2   
     6    2    7 1   
     7    7    8 1   
     8    7   15 1   
     9    8    9 1   
    10    8   11 1   
    11    8   16 1   
    12    9   10 2   
    13    9   19 1   
    14   11   12 1   
    15   11   17 1   
    16   11   18 1   
    17   12   13 1   
    18   12   14 1   
    19   19   20 1   
    20   19   27 1   
    21   20   21 1   
    22   20   23 1   
    23   20   28 1   
    24   21   22 2   
    25   21   38 1   
    26   23   24 1   
    27   23   25 1   
    28   23   29 1   
    29   24   26 1   
    30   24   30 1   
    31   24   31 1   
    32   25   32 1   
    33   25   33 1   
    34   25   34 1   
    35   26   35 1   
    36   26   36 1   
    37   26   37 1   
    38   38   39 1   
    39   38   46 1   
    40   39   40 1   
    41   39   42 1   
    42   39   47 1   
    43   40   41 2   
    44   40   50 1   
    45   42   43 1   
    46   42   48 1   
    47   42   49 1   
    48   43   44 1   
    49   43   45 1   
    50   50   51 1   
    51   50   54 1   
    52   51   52 1   
    53   51   55 1   
    54   51   56 1   
    55   52   53 2   
    56   52   57 1   
    57   57   58 1   
    58   57   65 1   
    59   58   59 1   
    60   58   61 1   
    61   58   66 1   
    62   59   60 2   
    63   59   69 1   
    64   61   62 1   
    65   61   67 1   
    66   61   68 1   
    67   62   63 1   
    68   62   64 1   
    69   69   70 1   
    70   69   73 1   
    71   70   71 1   
    72   70   74 1   
    73   70   75 1   
    74   71   72 2   
    75   71   76 1   
    76   76   77 1   
    77   76   85 1   
    78   77   78 1   
    79   77   80 1   
    80   77   86 1   
    81   78   79 2   
    82   78   93 1   
    83   80   81 1   
    84   80   87 1   
    85   80   88 1   
    86   81   82 1   
    87   81   89 1   
    88   81   90 1   
    89   82   83 1   
    90   82   84 2   
    91   83   91 1   
    92   83   92 1   
    93   93   94 1   
    94   93  100 1   
    95   94   95 1   
    96   94   97 1   
    97   94  101 1   
    98   95   96 2   
    99   95  109 1   
   100   97   98 1   
   101   97   99 1   
   102   97  102 1   
   103   98  103 1   
   104   98  104 1   
   105   98  105 1   
   106   99  106 1   
   107   99  107 1   
   108   99  108 1   
   109  109  110 1   
   110  109  117 1   
   111  110  111 1   
   112  110  113 1   
   113  110  118 1   
   114  111  112 2   
   115  111  123 1   
   116  113  114 1   
   117  113  119 1   
   118  113  120 1   
   119  114  115 1   
   120  114  116 2   
   121  115  121 1   
   122  115  122 1   
   123  123  124 1   
   124  123  135 1   
   125  124  125 1   
   126  124  127 1   
   127  124  136 1   
   128  125  126 2   
   129  125  144 1   
   130  127  128 1   
   131  127  137 1   
   132  127  138 1   
   133  128  129 ar  
   134  128  130 ar  
   135  129  131 ar  
   136  129  139 1   
   137  130  132 ar  
   138  130  140 1   
   139  131  133 ar  
   140  131  141 1   
   141  132  133 ar  
   142  132  142 1   
   143  133  134 1   
   144  134  143 1   
   145  144  145 1   
   146  144  153 1   
   147  145  146 1   
   148  145  148 1   
   149  145  154 1   
   150  146  147 2   
   151  146  159 1   
   152  148  149 1   
   153  148  155 1   
   154  148  156 1   
   155  149  150 1   
   156  149  157 1   
   157  149  158 1   
   158  150  151 1   
   159  150  152 1   
   160  159  160 1   
   161  159  168 1   
   162  160  161 1   
   163  160  163 1   
   164  160  169 1   
   165  161  162 2   
   166  161  174 1   
   167  163  164 1   
   168  163  170 1   
   169  163  171 1   
   170  164  165 1   
   171  164  172 1   
   172  164  173 1   
   173  165  166 1   
   174  165  167 1   
   175  174  175 1   
   176  174  179 1   
   177  175  176 1   
   178  175  177 1   
   179  175  178 1   
   180  181  182 1   
   181  181  183 1   
   182  184  185 1   
   183  184  186 1   
   184  187  188 1   
   185  187  189 1   
@<TRIPOS>SUBSTRUCTURE
     1 MOL         1 TEMP              0 ****  ****    0 ROOT
