@<TRIPOS>MOLECULE
MOL
  176   174     1     0     0
SMALL
resp


@<TRIPOS>ATOM
      1 C1          1.0150    3.3540    6.2450 c3        1 MOL     -0.349229
      2 C2          0.8040    2.6910    4.8960 c         1 MOL      0.729146
      3 O1          1.7920    2.5310    4.1570 o         1 MOL     -0.577047
      4 H1          1.2330    4.4120    6.0990 hc        1 MOL      0.088640
      5 H2          0.1120    3.2500    6.8470 hc        1 MOL      0.088640
      6 H3          1.8510    2.8780    6.7560 hc        1 MOL      0.088640
      7 N1         -0.4440    2.4780    4.5350 n         1 MOL     -0.624956
      8 C3         -0.8660    2.2770    3.1860 c3        1 MOL      0.103254
      9 C4         -0.9040    3.6460    2.4440 c         1 MOL      0.698908
     10 O2         -1.3130    4.7280    2.9790 o         1 MOL     -0.604489
     11 C5         -2.2010    1.5180    3.1890 c3        1 MOL     -0.343666
     12 C6         -2.8310    1.3010    1.7970 c         1 MOL      0.918683
     13 O3         -3.4760    0.2210    1.6100 o         1 MOL     -0.749135
     14 O4         -2.5280    2.0330    0.8560 o         1 MOL     -0.749135
     15 H4         -1.1960    2.4610    5.2120 hn        1 MOL      0.354254
     16 H5         -0.1410    1.7580    2.5500 h1        1 MOL      0.004526
     17 H6         -2.9350    2.0810    3.7470 hc        1 MOL      0.082811
     18 H7         -2.0060    0.5150    3.5640 hc        1 MOL      0.082811
     19 N2         -0.3200    3.7420    1.2350 n         1 MOL     -0.368197
     20 C7         -0.0570    5.0140    0.4710 c3        1 MOL     -0.234557
     21 C8         -1.2360    5.5610   -0.3770 c         1 MOL      0.638420
     22 O5         -1.1930    6.6720   -0.9240 o         1 MOL     -0.606284
     23 C9          1.2160    4.6860   -0.3440 c3        1 MOL      0.073464
     24 C10         1.5540    5.6210   -1.5340 c3        1 MOL     -0.158179
     25 C11         2.7170    5.1930   -2.3850 c3        1 MOL      0.007916
     26 C12         2.9830    6.3550   -3.3790 c3        1 MOL      0.100970
     27 N3          4.0980    6.0740   -4.1960 n4        1 MOL     -0.301687
     28 H8          0.0020    2.8910    0.7960 hn        1 MOL      0.215451
     29 H9          0.1040    5.8490    1.1520 h1        1 MOL      0.138933
     30 H10         1.0440    3.7180   -0.8160 hc        1 MOL      0.082570
     31 H11         2.0460    4.6100    0.3480 hc        1 MOL      0.082570
     32 H12         1.8400    6.5820   -1.0960 hc        1 MOL      0.052585
     33 H13         0.6480    5.7400   -2.1310 hc        1 MOL      0.052585
     34 H14         2.4530    4.3620   -3.0420 hc        1 MOL      0.032361
     35 H15         3.5870    4.9420   -1.7670 hc        1 MOL      0.032361
     36 H16         2.9920    7.3470   -2.9370 hx        1 MOL      0.060967
     37 H17         2.1400    6.2940   -4.0550 hx        1 MOL      0.060967
     38 H18         4.9780    5.9290   -3.7310 hn        1 MOL      0.306655
     39 H19         3.8730    5.2530   -4.7420 hn        1 MOL      0.306655
     40 H20         4.2730    6.7700   -4.9030 hn        1 MOL      0.306655
     41 N4         -2.2060    4.7440   -0.6150 n         1 MOL     -0.348616
     42 C13        -3.2370    4.8480   -1.6260 c3        1 MOL     -0.068866
     43 C14        -4.6120    4.4940   -1.0520 c         1 MOL      0.448085
     44 O6         -5.6110    5.0230   -1.5420 o         1 MOL     -0.538155
     45 C15        -2.9620    3.8270   -2.8270 c3        1 MOL     -0.005385
     46 C16        -2.6900    2.4300   -2.3670 c         1 MOL      0.683275
     47 O7         -3.6550    1.6470   -2.1120 o         1 MOL     -0.760036
     48 O8         -1.5520    2.0020   -2.2070 o         1 MOL     -0.760036
     49 H21        -2.1280    3.8230   -0.2100 hn        1 MOL      0.225880
     50 H22        -3.2050    5.8700   -1.9940 h1        1 MOL      0.115249
     51 H23        -2.1310    4.2210   -3.4190 hc        1 MOL      0.018480
     52 H24        -3.7200    3.8410   -3.5990 hc        1 MOL      0.018480
     53 N5         -4.6240    3.6960   -0.0120 n         1 MOL     -0.004835
     54 C17        -5.7620    3.0840    0.6090 c3        1 MOL     -0.289045
     55 C18        -6.5710    2.0790   -0.1950 c         1 MOL      0.728331
     56 O9         -7.5790    2.3530   -0.8260 o         1 MOL     -0.552119
     57 H25        -3.7210    3.4290    0.3550 hn        1 MOL      0.080977
     58 H26        -6.4540    3.8840    0.8640 h1        1 MOL      0.090131
     59 H27        -5.3860    2.6030    1.5080 h1        1 MOL      0.090131
     60 N6         -6.1610    0.8080   -0.1140 n         1 MOL     -0.462121
     61 C19        -6.9550   -0.2960   -0.5100 c3        1 MOL      0.046834
     62 C20        -6.9300   -1.5390    0.4190 c         1 MOL      0.435260
     63 O10        -7.7240   -2.4240    0.2270 o         1 MOL     -0.533371
     64 C21        -6.5190   -0.7350   -1.9590 c3        1 MOL     -0.287756
     65 C22        -5.1870   -1.4550   -2.0940 c         1 MOL      0.829943
     66 N7         -4.9120   -2.0390   -3.2300 n         1 MOL     -0.812904
     67 O11        -4.3430   -1.4970   -1.2080 o         1 MOL     -0.618264
     68 H28        -5.2790    0.7440    0.3830 hn        1 MOL      0.146027
     69 H29        -8.0100   -0.0310   -0.4720 h1        1 MOL      0.109624
     70 H30        -6.5290    0.1330   -2.6250 hc        1 MOL      0.101267
     71 H31        -7.3040   -1.4220   -2.2930 hc        1 MOL      0.101267
     72 H32        -5.6220   -2.1020   -3.9540 hn        1 MOL      0.347416
     73 H33        -4.1890   -2.7520   -3.2620 hn        1 MOL      0.347416
     74 N8         -6.0780   -1.6390    1.4120 n         1 MOL     -0.195736
     75 C23        -6.0800   -2.7630    2.3100 c3        1 MOL     -0.140903
     76 C24        -4.7660   -3.5530    2.4940 c         1 MOL      0.604347
     77 O12        -4.6930   -4.3410    3.4010 o         1 MOL     -0.566811
     78 H34        -5.4480   -0.8600    1.5310 hn        1 MOL      0.210992
     79 H35        -6.8450   -3.4850    2.0160 h1        1 MOL      0.091788
     80 H36        -6.2720   -2.3870    3.3100 h1        1 MOL      0.091788
     81 N9         -3.7370   -3.3020    1.6660 n         1 MOL     -0.378798
     82 C25        -2.4190   -3.9960    1.6730 c3        1 MOL      0.001495
     83 C26        -1.3170   -3.0440    1.3500 c         1 MOL      0.600330
     84 O13        -1.5350   -2.0700    0.6190 o         1 MOL     -0.645029
     85 C27        -2.4100   -5.2790    0.8330 c3        1 MOL     -0.067421
     86 C28        -2.6770   -5.2190   -0.6640 ca        1 MOL      0.052635
     87 C29        -1.5760   -5.2410   -1.5060 ca        1 MOL     -0.130677
     88 C30        -3.9880   -4.9770   -1.1440 ca        1 MOL     -0.130677
     89 C31        -1.8450   -5.4500   -2.8990 ca        1 MOL     -0.304530
     90 C32        -4.1990   -5.1350   -2.5390 ca        1 MOL     -0.304530
     91 C33        -3.1630   -5.4210   -3.4120 ca        1 MOL      0.366254
     92 O14        -3.5100   -5.5430   -4.7100 oh        1 MOL     -0.479563
     93 H37        -3.8310   -2.7810    0.8050 hn        1 MOL      0.222305
     94 H38        -2.2370   -4.3840    2.6780 h1        1 MOL      0.082984
     95 H39        -3.1690   -5.9460    1.2400 hc        1 MOL      0.051474
     96 H40        -1.5240   -5.8950    0.9790 hc        1 MOL      0.051474
     97 H41        -0.6260   -5.0420   -1.0430 ha        1 MOL      0.164590
     98 H42        -4.8080   -4.9790   -0.4400 ha        1 MOL      0.164590
     99 H43        -1.0110   -5.4610   -3.5700 ha        1 MOL      0.139006
    100 H44        -5.1890   -5.0990   -2.9670 ha        1 MOL      0.139006
    101 H45        -2.7500   -5.5870   -5.3030 ho        1 MOL      0.354792
    102 N10        -0.1540   -3.2990    1.8810 n         1 MOL     -0.542953
    103 C34         1.1540   -2.6520    1.4990 c3        1 MOL     -0.041516
    104 C35         1.9860   -3.6640    0.6760 c         1 MOL      0.412521
    105 O15         1.7030   -4.8710    0.7120 o         1 MOL     -0.530273
    106 C36         1.8100   -1.9710    2.7460 c3        1 MOL      0.120013
    107 C37         2.2580   -3.1700    3.6380 c3        1 MOL     -0.146192
    108 C38         0.8980   -0.9100    3.4300 c3        1 MOL     -0.129952
    109 C39         2.7650   -2.7300    5.0070 c3        1 MOL     -0.120629
    110 H46        -0.1560   -4.1280    2.4560 hn        1 MOL      0.314042
    111 H47         0.8810   -1.7920    0.8950 h1        1 MOL      0.262770
    112 H48         2.6800   -1.4690    2.3200 hc        1 MOL     -0.030294
    113 H49         3.0700   -3.7120    3.1610 hc        1 MOL      0.072089
    114 H50         1.3600   -3.7510    3.8760 hc        1 MOL      0.072089
    115 H51         0.4360   -0.3360    2.6260 hc        1 MOL      0.054628
    116 H52         0.0910   -1.3370    4.0220 hc        1 MOL      0.054628
    117 H53         1.5310   -0.3960    4.1480 hc        1 MOL      0.054628
    118 H54         3.6310   -2.0810    4.8840 hc        1 MOL      0.033834
    119 H55         2.0140   -2.3420    5.7000 hc        1 MOL      0.033834
    120 H56         3.2390   -3.5810    5.4800 hc        1 MOL      0.033834
    121 N11         2.8610   -3.0680   -0.1210 n         1 MOL     -0.174721
    122 C40         4.0600   -3.6140   -0.7020 c3        1 MOL      0.032141
    123 C41         5.3880   -3.0810   -0.0570 c         1 MOL      0.488204
    124 O16         5.3810   -2.1110    0.6850 o         1 MOL     -0.409651
    125 C42         3.9570   -3.3020   -2.2270 c3        1 MOL     -0.096222
    126 O17         4.3710   -2.0330   -2.4130 oh        1 MOL     -0.317299
    127 H57         2.8560   -2.0630   -0.1950 hn        1 MOL      0.100152
    128 H58         4.0850   -4.7090   -0.6770 h1        1 MOL      0.075307
    129 H59         2.9530   -3.3900   -2.6580 h1        1 MOL      0.067705
    130 H60         4.6140   -3.9300   -2.8350 h1        1 MOL      0.067705
    131 H61         4.4110   -1.9190   -3.3690 ho        1 MOL      0.363103
    132 N12         6.5430   -3.5210   -0.6120 n         1 MOL     -0.553302
    133 C43         7.8730   -2.9930   -0.3850 c3        1 MOL      0.327607
    134 C44         7.9770   -1.5500   -0.7790 c         1 MOL      0.396037
    135 O18         8.6680   -0.7750   -0.1290 o         1 MOL     -0.495028
    136 C45         8.8860   -3.9070   -1.0890 c3        1 MOL     -0.519710
    137 H62         6.4220   -4.2220   -1.3240 hn        1 MOL      0.304154
    138 H63         8.0890   -2.9980    0.6820 h1        1 MOL      0.058407
    139 H64         9.8060   -3.3370   -1.2270 hc        1 MOL      0.150397
    140 H65         9.1460   -4.6950   -0.3850 hc        1 MOL      0.150397
    141 H66         8.4590   -4.3350   -1.9930 hc        1 MOL      0.150397
    142 N13         7.2280   -1.1670   -1.8420 n         1 MOL     -0.421768
    143 C46         7.3220    0.1940   -2.3340 c3        1 MOL      0.205959
    144 C47         6.5100    1.1870   -1.4770 c         1 MOL      0.254772
    145 O19         6.7470    2.3900   -1.4850 o         1 MOL     -0.492943
    146 C48         6.7620    0.1960   -3.7580 c3        1 MOL     -0.253278
    147 H67         6.6240   -1.7830   -2.3730 hn        1 MOL      0.229340
    148 H68         8.3380    0.5610   -2.3870 h1        1 MOL      0.087229
    149 H69         7.2520   -0.5510   -4.3790 hc        1 MOL      0.061222
    150 H70         5.7100   -0.0500   -3.6100 hc        1 MOL      0.061222
    151 H71         7.0910    1.1430   -4.1880 hc        1 MOL      0.061222
    152 N14         5.4680    0.6340   -0.7710 n         1 MOL      0.063710
    153 C49         4.7330    1.4920    0.1490 c3        1 MOL     -0.122258
    154 C50         5.4000    1.5790    1.5200 c         1 MOL      0.522307
    155 O20         5.5050    2.6710    2.1640 o         1 MOL     -0.533241
    156 C51         3.3580    0.8970    0.4490 c3        1 MOL     -0.178421
    157 C52         2.4940    0.9430   -0.8060 c3        1 MOL      0.310834
    158 C53         1.0780    0.3890   -0.5510 c         1 MOL      0.594516
    159 O21         0.3200    0.9480    0.2570 o         1 MOL     -0.694383
    160 O22         0.6680   -0.6260   -1.1780 o         1 MOL     -0.694383
    161 H72         5.1740   -0.3120   -0.9410 hn        1 MOL     -0.003104
    162 H73         4.7290    2.4780   -0.3140 h1        1 MOL      0.065033
    163 H74         2.8710    1.5060    1.2080 hc        1 MOL      0.063989
    164 H75         3.5540   -0.1250    0.7770 hc        1 MOL      0.063989
    165 H76         2.8900    0.3170   -1.6070 hc        1 MOL     -0.139253
    166 H77         2.4150    1.9370   -1.2460 hc        1 MOL     -0.139253
    167 N15         6.0880    0.4440    1.8770 n         1 MOL     -0.161740
    168 C54         6.8870    0.4210    3.0550 c3        1 MOL     -0.270324
    169 H78         6.9120    1.4170    3.4950 h1        1 MOL      0.101999
    170 H79         6.4590   -0.2810    3.7700 h1        1 MOL      0.101999
    171 H80         7.9000    0.1100    2.8010 h1        1 MOL      0.101999
    172 H81         6.0530   -0.4040    1.3240 hn        1 MOL      0.197462
    173 Ca1        -2.0330   -0.0520   -0.8010 Ca        1 MOL      1.756534
    174 O23        -1.8760   -1.5250   -3.0900 oh        1 MOL     -0.847454
    175 H82        -2.5070   -1.2620   -3.7640 ho        1 MOL      0.405004
    176 H83        -1.3540   -2.2020   -3.5140 ho        1 MOL      0.405004
@<TRIPOS>BOND
     1    1    2 1   
     2    1    4 1   
     3    1    5 1   
     4    1    6 1   
     5    2    3 2   
     6    2    7 1   
     7    7    8 1   
     8    7   15 1   
     9    8    9 1   
    10    8   11 1   
    11    8   16 1   
    12    9   10 2   
    13    9   19 1   
    14   11   12 1   
    15   11   17 1   
    16   11   18 1   
    17   12   13 1   
    18   12   14 1   
    19   19   20 1   
    20   19   28 1   
    21   20   21 1   
    22   20   23 1   
    23   20   29 1   
    24   21   22 2   
    25   21   41 1   
    26   23   24 1   
    27   23   30 1   
    28   23   31 1   
    29   24   25 1   
    30   24   32 1   
    31   24   33 1   
    32   25   26 1   
    33   25   34 1   
    34   25   35 1   
    35   26   27 1   
    36   26   36 1   
    37   26   37 1   
    38   27   38 1   
    39   27   39 1   
    40   27   40 1   
    41   41   42 1   
    42   41   49 1   
    43   42   43 1   
    44   42   45 1   
    45   42   50 1   
    46   43   44 2   
    47   43   53 1   
    48   45   46 1   
    49   45   51 1   
    50   45   52 1   
    51   46   47 1   
    52   46   48 1   
    53   53   54 1   
    54   53   57 1   
    55   54   55 1   
    56   54   58 1   
    57   54   59 1   
    58   55   56 2   
    59   55   60 1   
    60   60   61 1   
    61   60   68 1   
    62   61   62 1   
    63   61   64 1   
    64   61   69 1   
    65   62   63 2   
    66   62   74 1   
    67   64   65 1   
    68   64   70 1   
    69   64   71 1   
    70   65   66 1   
    71   65   67 2   
    72   66   72 1   
    73   66   73 1   
    74   74   75 1   
    75   74   78 1   
    76   75   76 1   
    77   75   79 1   
    78   75   80 1   
    79   76   77 2   
    80   76   81 1   
    81   81   82 1   
    82   81   93 1   
    83   82   83 1   
    84   82   85 1   
    85   82   94 1   
    86   83   84 2   
    87   83  102 1   
    88   85   86 1   
    89   85   95 1   
    90   85   96 1   
    91   86   87 ar  
    92   86   88 ar  
    93   87   89 ar  
    94   87   97 1   
    95   88   90 ar  
    96   88   98 1   
    97   89   91 ar  
    98   89   99 1   
    99   90   91 ar  
   100   90  100 1   
   101   91   92 1   
   102   92  101 1   
   103  102  103 1   
   104  102  110 1   
   105  103  104 1   
   106  103  106 1   
   107  103  111 1   
   108  104  105 2   
   109  104  121 1   
   110  106  107 1   
   111  106  108 1   
   112  106  112 1   
   113  107  109 1   
   114  107  113 1   
   115  107  114 1   
   116  108  115 1   
   117  108  116 1   
   118  108  117 1   
   119  109  118 1   
   120  109  119 1   
   121  109  120 1   
   122  121  122 1   
   123  121  127 1   
   124  122  123 1   
   125  122  125 1   
   126  122  128 1   
   127  123  124 2   
   128  123  132 1   
   129  125  126 1   
   130  125  129 1   
   131  125  130 1   
   132  126  131 1   
   133  132  133 1   
   134  132  137 1   
   135  133  134 1   
   136  133  136 1   
   137  133  138 1   
   138  134  135 2   
   139  134  142 1   
   140  136  139 1   
   141  136  140 1   
   142  136  141 1   
   143  142  143 1   
   144  142  147 1   
   145  143  144 1   
   146  143  146 1   
   147  143  148 1   
   148  144  145 2   
   149  144  152 1   
   150  146  149 1   
   151  146  150 1   
   152  146  151 1   
   153  152  153 1   
   154  152  161 1   
   155  153  154 1   
   156  153  156 1   
   157  153  162 1   
   158  154  155 2   
   159  154  167 1   
   160  156  157 1   
   161  156  163 1   
   162  156  164 1   
   163  157  158 1   
   164  157  165 1   
   165  157  166 1   
   166  158  159 1   
   167  158  160 1   
   168  167  168 1   
   169  167  172 1   
   170  168  169 1   
   171  168  170 1   
   172  168  171 1   
   173  174  175 1   
   174  174  176 1   
@<TRIPOS>SUBSTRUCTURE
     1 MOL         1 TEMP              0 ****  ****    0 ROOT
