@<TRIPOS>MOLECULE
MOL
  183   181     1     0     0
SMALL
resp


@<TRIPOS>ATOM
      1 C1         -0.4180    2.5280    6.2220 c3        1 MOL     -0.325910
      2 C2         -0.7270    2.4010    4.7750 c         1 MOL      0.855400
      3 O1          0.0560    2.8030    3.9110 o         1 MOL     -0.633319
      4 H1         -0.5410    3.5660    6.5290 hc        1 MOL      0.072928
      5 H2         -1.0960    1.8970    6.7960 hc        1 MOL      0.072928
      6 H3          0.6110    2.2160    6.4020 hc        1 MOL      0.072928
      7 N1         -1.7910    1.7080    4.3880 n         1 MOL     -0.843849
      8 C3         -2.2950    1.5660    3.0210 c3        1 MOL      0.458716
      9 C4         -2.6950    2.9960    2.5490 c         1 MOL      0.505981
     10 O2         -3.3060    3.7660    3.2940 o         1 MOL     -0.592215
     11 C5         -3.4260    0.5220    3.0810 c3        1 MOL     -0.311095
     12 C6         -4.2120    0.2970    1.7890 c         1 MOL      0.807960
     13 O3         -5.4280   -0.1330    1.8040 o         1 MOL     -0.693497
     14 O4         -3.6030    0.6200    0.7420 o         1 MOL     -0.693497
     15 H4         -2.4490    1.3580    5.0690 hn        1 MOL      0.349555
     16 H5         -1.5430    1.1320    2.3620 h1        1 MOL     -0.041022
     17 H6         -4.1780    0.9020    3.7640 hc        1 MOL      0.036524
     18 H7         -3.0210   -0.4440    3.3860 hc        1 MOL      0.036524
     19 N2         -2.4020    3.3220    1.3240 n         1 MOL     -0.237923
     20 C7         -2.5780    4.6580    0.6780 c3        1 MOL     -0.098930
     21 C8         -3.8270    4.7550   -0.2600 c         1 MOL      0.607961
     22 O5         -4.4440    5.8350   -0.3890 o         1 MOL     -0.598441
     23 C9         -1.2830    5.0790    0.0200 c3        1 MOL      0.280679
     24 C10        -0.1640    5.2140    1.1240 c3        1 MOL     -0.001571
     25 C11        -1.4700    6.4320   -0.6460 c3        1 MOL     -0.148379
     26 C12         1.1410    5.7170    0.4930 c3        1 MOL     -0.096054
     27 H8         -1.8830    2.6560    0.7740 hn        1 MOL      0.094104
     28 H9         -2.7630    5.3680    1.4800 h1        1 MOL      0.047986
     29 H10        -0.9860    4.4180   -0.7870 hc        1 MOL     -0.001194
     30 H11        -0.0280    4.2120    1.5400 hc        1 MOL      0.007570
     31 H12        -0.4240    5.9620    1.8660 hc        1 MOL      0.007570
     32 H13        -2.0170    7.1880   -0.0920 hc        1 MOL      0.014149
     33 H14        -0.5060    6.8790   -0.8900 hc        1 MOL      0.014149
     34 H15        -1.8860    6.3000   -1.6510 hc        1 MOL      0.014149
     35 H16         1.3270    5.2460   -0.4840 hc        1 MOL      0.010468
     36 H17         1.0360    6.7930    0.3630 hc        1 MOL      0.010468
     37 H18         2.0300    5.5090    1.0810 hc        1 MOL      0.010468
     38 N3         -4.2930    3.6130   -0.8080 n         1 MOL     -0.415002
     39 C13        -5.4050    3.6120   -1.8040 c3        1 MOL     -0.022479
     40 C14        -6.5240    2.6120   -1.4550 c         1 MOL      0.437451
     41 O6         -7.4960    2.5260   -2.2040 o         1 MOL     -0.519594
     42 C15        -4.8030    3.3820   -3.1740 c3        1 MOL     -0.093843
     43 C16        -3.7870    2.2940   -3.3560 c         1 MOL      0.748909
     44 O7         -3.1260    2.3070   -4.4250 o         1 MOL     -0.703022
     45 O8         -3.6270    1.3500   -2.5000 o         1 MOL     -0.703022
     46 H19        -3.7500    2.7620   -0.8610 hn        1 MOL      0.226514
     47 H20        -5.8160    4.6280   -1.8350 h1        1 MOL      0.103589
     48 H21        -4.2610    4.2910   -3.4610 hc        1 MOL      0.024204
     49 H22        -5.5580    3.2630   -3.9450 hc        1 MOL      0.024204
     50 N4         -6.4670    2.0080   -0.2380 n         1 MOL     -0.234308
     51 C17        -7.6570    1.3690    0.3320 c3        1 MOL     -0.182003
     52 C18        -8.0360    0.0120   -0.2520 c         1 MOL      0.512090
     53 O9         -9.2140   -0.2700   -0.4010 o         1 MOL     -0.601964
     54 H23        -5.6620    2.0770    0.3690 hn        1 MOL      0.205865
     55 H24        -8.4750    2.0860    0.2680 h1        1 MOL      0.098768
     56 H25        -7.5180    1.1840    1.3920 h1        1 MOL      0.098768
     57 N5         -7.0770   -0.8150   -0.7010 n         1 MOL     -0.104380
     58 C19        -7.2970   -2.1820   -1.1120 c3        1 MOL     -0.083197
     59 C20        -7.0790   -3.3010   -0.0660 c         1 MOL      0.397243
     60 O10        -7.2520   -4.5090   -0.2980 o         1 MOL     -0.537576
     61 C21        -6.4260   -2.4140   -2.3090 c3        1 MOL     -0.009026
     62 C22        -4.9900   -2.0590   -2.0980 c         1 MOL      0.649233
     63 O11        -4.3310   -1.5690   -3.0410 o         1 MOL     -0.721091
     64 O12        -4.4280   -2.1320   -0.9870 o         1 MOL     -0.721091
     65 H26        -6.1310   -0.5310   -0.4670 hn        1 MOL      0.074052
     66 H27        -8.3310   -2.2450   -1.4580 h1        1 MOL      0.108677
     67 H28        -6.8270   -1.9440   -3.1980 hc        1 MOL      0.013039
     68 H29        -6.4730   -3.4850   -2.5130 hc        1 MOL      0.013039
     69 N6         -6.5600   -2.9340    1.1370 n         1 MOL     -0.203590
     70 C23        -6.2460   -3.8010    2.2360 c3        1 MOL      0.009408
     71 C24        -4.8190   -4.3970    2.3090 c         1 MOL      0.621431
     72 O13        -4.6630   -5.3980    2.9310 o         1 MOL     -0.593152
     73 H30        -6.4190   -1.9390    1.2630 hn        1 MOL      0.196261
     74 H31        -6.9870   -4.5800    2.3980 h1        1 MOL      0.016710
     75 H32        -6.2040   -3.3010    3.2080 h1        1 MOL      0.016710
     76 N7         -3.9380   -3.8550    1.4280 n         1 MOL     -0.388045
     77 C25        -2.5840   -4.2990    1.4010 c3        1 MOL      0.044279
     78 C26        -1.5670   -3.1320    1.3390 c         1 MOL      0.678419
     79 O14        -1.8510   -2.0890    0.8140 o         1 MOL     -0.704775
     80 C27        -2.4220   -5.3180    0.2700 c3        1 MOL     -0.074951
     81 C28        -2.7830   -4.8320   -1.1270 c3        1 MOL     -0.186438
     82 C29        -1.7160   -4.1380   -1.8480 c         1 MOL      0.578339
     83 N8         -0.9220   -4.9000   -2.5300 n         1 MOL     -0.699968
     84 O15        -1.5380   -2.9330   -1.8590 o         1 MOL     -0.572275
     85 H33        -4.2960   -3.1810    0.7720 hn        1 MOL      0.253230
     86 H34        -2.2580   -4.7730    2.3160 h1        1 MOL      0.010959
     87 H35        -3.0480   -6.1440    0.5960 hc        1 MOL      0.025522
     88 H36        -1.4050   -5.7040    0.2190 hc        1 MOL      0.025522
     89 H37        -3.7560   -4.3480   -1.2470 hc        1 MOL      0.082179
     90 H38        -2.9440   -5.7250   -1.7260 hc        1 MOL      0.082179
     91 H39        -1.0860   -5.8970   -2.4920 hn        1 MOL      0.339297
     92 H40        -0.1020   -4.4460   -2.8950 hn        1 MOL      0.339297
     93 N9         -0.4050   -3.3170    1.9970 n         1 MOL     -0.325414
     94 C30         0.6210   -2.3040    2.0690 c3        1 MOL     -0.269930
     95 C31         1.8020   -2.8460    1.2160 c         1 MOL      0.425585
     96 O16         2.4770   -3.7940    1.5980 o         1 MOL     -0.547923
     97 C32         0.9250   -2.1220    3.5370 c3        1 MOL      0.209299
     98 C33         1.9500   -1.0880    3.8840 c3        1 MOL     -0.271930
     99 C34        -0.3900   -1.7530    4.2640 c3        1 MOL     -0.271930
    100 H41        -0.2420   -4.2080    2.4380 hn        1 MOL      0.261666
    101 H42         0.3280   -1.3540    1.6390 h1        1 MOL      0.241540
    102 H43         1.4510   -2.9460    4.0080 hc        1 MOL      0.014162
    103 H44         1.9860   -1.0850    4.9740 hc        1 MOL      0.062733
    104 H45         3.0010   -1.2430    3.6450 hc        1 MOL      0.062733
    105 H46         1.6800   -0.0790    3.5450 hc        1 MOL      0.062733
    106 H47        -0.9000   -0.9220    3.7900 hc        1 MOL      0.062733
    107 H48        -1.1850   -2.4970    4.1900 hc        1 MOL      0.062733
    108 H49        -0.2460   -1.5740    5.3340 hc        1 MOL      0.062733
    109 N10         1.9790   -2.2120    0.0440 n         1 MOL     -0.204757
    110 C35         3.1410   -2.3830   -0.8520 c3        1 MOL      0.038571
    111 C36         4.3740   -1.8040   -0.2180 c         1 MOL      0.411817
    112 O17         4.2980   -0.9130    0.6580 o         1 MOL     -0.299478
    113 C37         2.9550   -1.8710   -2.3100 c3        1 MOL     -0.274896
    114 C38         1.7680   -2.3270   -3.0120 c         1 MOL      0.811371
    115 N11         0.7350   -1.5370   -2.9770 n         1 MOL     -0.830071
    116 O18         1.7370   -3.4650   -3.4710 o         1 MOL     -0.666566
    117 H50         1.3400   -1.4570   -0.1420 hn        1 MOL      0.165088
    118 H51         3.3190   -3.4500   -0.9800 h1        1 MOL      0.062156
    119 H52         3.7810   -2.1400   -2.9630 hc        1 MOL      0.062211
    120 H53         2.8260   -0.7840   -2.2940 hc        1 MOL      0.062211
    121 H54         0.7850   -0.7300   -2.3770 hn        1 MOL      0.406839
    122 H55        -0.1620   -1.8910   -3.2810 hn        1 MOL      0.406839
    123 N12         5.5200   -2.2690   -0.6350 n         1 MOL     -0.578686
    124 C39         6.8120   -1.6890   -0.1740 c3        1 MOL      0.458064
    125 C40         6.8310   -0.1710   -0.2260 c         1 MOL      0.386964
    126 O19         7.2600    0.4290    0.7420 o         1 MOL     -0.514147
    127 C41         7.9780   -2.3160   -0.9430 c3        1 MOL     -0.164491
    128 C42         9.3820   -2.0070   -0.4280 ca        1 MOL      0.253103
    129 C43         9.7610   -2.1710    0.9540 ca        1 MOL     -0.361931
    130 C44        10.3520   -1.5610   -1.3510 ca        1 MOL     -0.361931
    131 C45        11.0350   -1.7110    1.3560 ca        1 MOL     -0.079573
    132 C46        11.6330   -1.1220   -0.9210 ca        1 MOL     -0.079573
    133 C47        11.9940   -1.2270    0.4220 ca        1 MOL      0.163988
    134 O20        13.2100   -0.7850    0.9210 oh        1 MOL     -0.475732
    135 H56         5.5530   -3.0900   -1.2200 hn        1 MOL      0.313261
    136 H57         6.9270   -2.0810    0.8450 h1        1 MOL     -0.009464
    137 H58         8.0140   -2.0110   -1.9870 hc        1 MOL      0.022824
    138 H59         7.8290   -3.4010   -0.8800 hc        1 MOL      0.022824
    139 H60         9.1050   -2.5380    1.7210 ha        1 MOL      0.183271
    140 H61        10.0970   -1.4890   -2.4020 ha        1 MOL      0.183271
    141 H62        11.3000   -1.6690    2.4020 ha        1 MOL      0.111507
    142 H63        12.3180   -0.6930   -1.6270 ha        1 MOL      0.111507
    143 H64        13.6150   -0.2060    0.2650 ho        1 MOL      0.353954
    144 N13         6.3470    0.4530   -1.3110 n         1 MOL     -0.424599
    145 C48         6.2490    1.9220   -1.4990 c3        1 MOL      0.181940
    146 C49         5.2690    2.6310   -0.4380 c         1 MOL      0.390232
    147 O21         5.5200    3.7980   -0.1020 o         1 MOL     -0.538536
    148 C50         5.8250    2.3130   -2.9390 c3        1 MOL     -0.316606
    149 C51         4.4410    1.7630   -3.3540 c3        1 MOL      0.108986
    150 C52         4.2980    1.8600   -4.8820 c         1 MOL      0.660466
    151 O22         3.5960    1.0280   -5.4440 o         1 MOL     -0.722154
    152 O23         4.8500    2.8660   -5.4350 o         1 MOL     -0.722154
    153 H65         5.8380   -0.1300   -1.9570 hn        1 MOL      0.270599
    154 H66         7.1800    2.4540   -1.2790 h1        1 MOL      0.034437
    155 H67         6.5530    1.8750   -3.6110 hc        1 MOL      0.073407
    156 H68         5.8210    3.4070   -2.9530 hc        1 MOL      0.073407
    157 H69         3.6160    2.1600   -2.7610 hc        1 MOL     -0.055368
    158 H70         4.4950    0.7090   -3.0950 hc        1 MOL     -0.055368
    159 N14         4.3040    1.8970    0.1200 n         1 MOL     -0.050360
    160 C53         3.4100    2.4080    1.1400 c3        1 MOL     -0.263490
    161 C54         4.0510    2.1940    2.5320 c         1 MOL      0.490735
    162 O24         3.9510    3.0660    3.4150 o         1 MOL     -0.565247
    163 C55         1.9640    1.8640    1.0510 c3        1 MOL      0.163588
    164 C56         1.3780    1.9200   -0.4000 c3        1 MOL     -0.092312
    165 C57         0.1040    1.0910   -0.6040 c         1 MOL      0.578134
    166 O25        -1.0260    1.6420   -0.8260 o         1 MOL     -0.667087
    167 O26         0.2300   -0.1600   -0.6230 o         1 MOL     -0.667087
    168 H71         4.3720    0.9000   -0.0080 hn        1 MOL      0.097794
    169 H72         3.3130    3.4790    0.9300 h1        1 MOL      0.146305
    170 H73         1.3230    2.3960    1.7500 hc        1 MOL      0.030044
    171 H74         1.9190    0.8130    1.3650 hc        1 MOL      0.030044
    172 H75         2.0690    1.5230   -1.1490 hc        1 MOL      0.051576
    173 H76         1.2350    2.9510   -0.7140 hc        1 MOL      0.051576
    174 N15         4.7080    1.0590    2.7340 n         1 MOL     -0.044153
    175 C58         5.5650    0.6940    3.8440 c3        1 MOL     -0.179059
    176 H77         5.4400    1.4150    4.6510 h1        1 MOL      0.070586
    177 H78         5.2950   -0.3000    4.2010 h1        1 MOL      0.070586
    178 H79         6.6040    0.6920    3.5150 h1        1 MOL      0.070586
    179 H80         4.5730    0.3770    2.0050 hn        1 MOL      0.005822
    180 Ca1        -2.4200   -0.5220   -1.2480 Ca        1 MOL      1.754909
    181 O27        -1.6580   -0.3410   -3.9510 oh        1 MOL     -0.815251
    182 H81        -2.0110    0.5170   -4.1670 ho        1 MOL      0.394169
    183 H82        -2.1270   -0.9570   -4.5140 ho        1 MOL      0.394169
@<TRIPOS>BOND
     1    1    2 1   
     2    1    4 1   
     3    1    5 1   
     4    1    6 1   
     5    2    3 2   
     6    2    7 1   
     7    7    8 1   
     8    7   15 1   
     9    8    9 1   
    10    8   11 1   
    11    8   16 1   
    12    9   10 2   
    13    9   19 1   
    14   11   12 1   
    15   11   17 1   
    16   11   18 1   
    17   12   13 1   
    18   12   14 1   
    19   19   20 1   
    20   19   27 1   
    21   20   21 1   
    22   20   23 1   
    23   20   28 1   
    24   21   22 2   
    25   21   38 1   
    26   23   24 1   
    27   23   25 1   
    28   23   29 1   
    29   24   26 1   
    30   24   30 1   
    31   24   31 1   
    32   25   32 1   
    33   25   33 1   
    34   25   34 1   
    35   26   35 1   
    36   26   36 1   
    37   26   37 1   
    38   38   39 1   
    39   38   46 1   
    40   39   40 1   
    41   39   42 1   
    42   39   47 1   
    43   40   41 2   
    44   40   50 1   
    45   42   43 1   
    46   42   48 1   
    47   42   49 1   
    48   43   44 1   
    49   43   45 1   
    50   50   51 1   
    51   50   54 1   
    52   51   52 1   
    53   51   55 1   
    54   51   56 1   
    55   52   53 2   
    56   52   57 1   
    57   57   58 1   
    58   57   65 1   
    59   58   59 1   
    60   58   61 1   
    61   58   66 1   
    62   59   60 2   
    63   59   69 1   
    64   61   62 1   
    65   61   67 1   
    66   61   68 1   
    67   62   63 1   
    68   62   64 1   
    69   69   70 1   
    70   69   73 1   
    71   70   71 1   
    72   70   74 1   
    73   70   75 1   
    74   71   72 2   
    75   71   76 1   
    76   76   77 1   
    77   76   85 1   
    78   77   78 1   
    79   77   80 1   
    80   77   86 1   
    81   78   79 2   
    82   78   93 1   
    83   80   81 1   
    84   80   87 1   
    85   80   88 1   
    86   81   82 1   
    87   81   89 1   
    88   81   90 1   
    89   82   83 1   
    90   82   84 2   
    91   83   91 1   
    92   83   92 1   
    93   93   94 1   
    94   93  100 1   
    95   94   95 1   
    96   94   97 1   
    97   94  101 1   
    98   95   96 2   
    99   95  109 1   
   100   97   98 1   
   101   97   99 1   
   102   97  102 1   
   103   98  103 1   
   104   98  104 1   
   105   98  105 1   
   106   99  106 1   
   107   99  107 1   
   108   99  108 1   
   109  109  110 1   
   110  109  117 1   
   111  110  111 1   
   112  110  113 1   
   113  110  118 1   
   114  111  112 2   
   115  111  123 1   
   116  113  114 1   
   117  113  119 1   
   118  113  120 1   
   119  114  115 1   
   120  114  116 2   
   121  115  121 1   
   122  115  122 1   
   123  123  124 1   
   124  123  135 1   
   125  124  125 1   
   126  124  127 1   
   127  124  136 1   
   128  125  126 2   
   129  125  144 1   
   130  127  128 1   
   131  127  137 1   
   132  127  138 1   
   133  128  129 ar  
   134  128  130 ar  
   135  129  131 ar  
   136  129  139 1   
   137  130  132 ar  
   138  130  140 1   
   139  131  133 ar  
   140  131  141 1   
   141  132  133 ar  
   142  132  142 1   
   143  133  134 1   
   144  134  143 1   
   145  144  145 1   
   146  144  153 1   
   147  145  146 1   
   148  145  148 1   
   149  145  154 1   
   150  146  147 2   
   151  146  159 1   
   152  148  149 1   
   153  148  155 1   
   154  148  156 1   
   155  149  150 1   
   156  149  157 1   
   157  149  158 1   
   158  150  151 1   
   159  150  152 1   
   160  159  160 1   
   161  159  168 1   
   162  160  161 1   
   163  160  163 1   
   164  160  169 1   
   165  161  162 2   
   166  161  174 1   
   167  163  164 1   
   168  163  170 1   
   169  163  171 1   
   170  164  165 1   
   171  164  172 1   
   172  164  173 1   
   173  165  166 1   
   174  165  167 1   
   175  174  175 1   
   176  174  179 1   
   177  175  176 1   
   178  175  177 1   
   179  175  178 1   
   180  181  182 1   
   181  181  183 1   
@<TRIPOS>SUBSTRUCTURE
     1 MOL         1 TEMP              0 ****  ****    0 ROOT
