@<TRIPOS>MOLECULE
MOL
  189   185     1     0     0
SMALL
resp


@<TRIPOS>ATOM
      1 C1          0.2510    2.6230    5.1440 c3        1 MOL     -0.517816
      2 C2         -0.2490    2.4490    3.6860 c         1 MOL      0.668712
      3 O1          0.3750    2.8920    2.7460 o         1 MOL     -0.597493
      4 H1         -0.2050    1.8620    5.7770 hc        1 MOL      0.126036
      5 H2          1.3360    2.5150    5.1720 hc        1 MOL      0.126036
      6 H3         -0.0260    3.6120    5.5080 hc        1 MOL      0.126036
      7 N1         -1.4040    1.8640    3.6480 n         1 MOL     -0.392755
      8 C3         -2.1030    1.6550    2.4210 c3        1 MOL      0.310632
      9 C4         -2.7380    2.9800    1.8690 c         1 MOL      0.245277
     10 O2         -3.6110    3.5080    2.5010 o         1 MOL     -0.523825
     11 C5         -3.0980    0.5550    2.6340 c3        1 MOL     -0.438308
     12 C6         -3.9240    0.2120    1.3700 c         1 MOL      0.818629
     13 O3         -4.8830   -0.5700    1.5240 o         1 MOL     -0.638920
     14 O4         -3.6440    0.7320    0.2610 o         1 MOL     -0.638920
     15 H4         -1.8490    1.6890    4.5370 hn        1 MOL      0.279383
     16 H5         -1.3730    1.4400    1.6490 h1        1 MOL     -0.116604
     17 H6         -3.6770    0.8820    3.4930 hc        1 MOL      0.102398
     18 H7         -2.5450   -0.3450    2.9190 hc        1 MOL      0.102398
     19 N2         -2.1230    3.6470    0.8970 n         1 MOL     -0.027514
     20 C7         -2.4900    4.9670    0.4390 c3        1 MOL      0.038715
     21 C8         -3.5290    4.9950   -0.6470 c         1 MOL      0.363574
     22 O5         -4.1930    6.0400   -0.7780 o         1 MOL     -0.560212
     23 C9         -1.3380    5.7850   -0.0150 c3        1 MOL     -0.149663
     24 C10        -0.2860    6.0780    1.0410 c3        1 MOL      0.225118
     25 C11        -0.8070    6.7600    2.2610 c3        1 MOL     -0.049225
     26 C12         0.2850    7.6440    2.8950 c3        1 MOL     -0.090235
     27 N3          1.2580    6.8190    3.6320 n4        1 MOL     -0.344704
     28 H8         -1.3940    3.1490    0.3970 hn        1 MOL      0.179516
     29 H9         -2.9770    5.4540    1.2920 h1        1 MOL      0.052533
     30 H10        -1.7820    6.7510   -0.2840 hc        1 MOL      0.049605
     31 H11        -0.8120    5.3640   -0.8760 hc        1 MOL      0.049605
     32 H12         0.4910    6.6230    0.5080 hc        1 MOL     -0.055666
     33 H13         0.0960    5.1100    1.3470 hc        1 MOL     -0.055666
     34 H14        -1.1940    6.0330    2.9860 hc        1 MOL      0.045339
     35 H15        -1.6830    7.3500    1.9710 hc        1 MOL      0.045339
     36 H16        -0.1360    8.3950    3.5600 hx        1 MOL      0.109649
     37 H17         0.6850    8.1780    2.0320 hx        1 MOL      0.109649
     38 H18         0.7800    6.2160    4.2910 hn        1 MOL      0.330063
     39 H19         1.8310    6.2410    3.0350 hn        1 MOL      0.330063
     40 H20         1.8580    7.4460    4.1620 hn        1 MOL      0.330063
     41 N4         -3.6550    4.0040   -1.4800 n         1 MOL     -0.208979
     42 C13        -4.5860    3.8360   -2.6100 c3        1 MOL      0.094150
     43 C14        -5.6510    2.7850   -2.2900 c         1 MOL      0.328687
     44 O6         -6.6760    2.5880   -3.0540 o         1 MOL     -0.497440
     45 C15        -3.8160    3.4040   -3.8990 c3        1 MOL     -0.274898
     46 C16        -2.9850    2.1440   -3.8380 c         1 MOL      0.851912
     47 O7         -3.1020    1.4320   -2.8490 o         1 MOL     -0.739517
     48 O8         -1.9980    1.9750   -4.5850 o         1 MOL     -0.739517
     49 H21        -2.9140    3.3120   -1.5470 hn        1 MOL      0.218057
     50 H22        -5.1740    4.7100   -2.8760 h1        1 MOL      0.092488
     51 H23        -3.2040    4.2510   -4.1910 hc        1 MOL      0.058366
     52 H24        -4.4980    3.2520   -4.7350 hc        1 MOL      0.058366
     53 N5         -5.6440    2.1870   -1.0650 n         1 MOL     -0.156979
     54 C17        -6.8640    1.7210   -0.3660 c3        1 MOL     -0.301443
     55 C18        -7.3290    0.3910   -0.9840 c         1 MOL      0.608555
     56 O9         -8.5290    0.2170   -1.2470 o         1 MOL     -0.593598
     57 H25        -4.8280    2.2600   -0.4710 hn        1 MOL      0.234789
     58 H26        -7.6720    2.4530   -0.4430 h1        1 MOL      0.130822
     59 H27        -6.5740    1.5900    0.6820 h1        1 MOL      0.130822
     60 N6         -6.4270   -0.5440   -1.2520 n         1 MOL     -0.175819
     61 C19        -6.7890   -1.8370   -1.8150 c3        1 MOL     -0.020207
     62 C20        -6.8480   -2.9200   -0.7500 c         1 MOL      0.427364
     63 O10        -7.0680   -4.1210   -0.9160 o         1 MOL     -0.527536
     64 C21        -5.8870   -2.2160   -2.9970 c3        1 MOL     -0.236441
     65 C22        -4.4600   -1.9800   -2.6520 c         1 MOL      0.904743
     66 O11        -4.0810   -2.1430   -1.4690 o         1 MOL     -0.772179
     67 O12        -3.6310   -1.6240   -3.4910 o         1 MOL     -0.772179
     68 H28        -5.5010   -0.4750   -0.8420 hn        1 MOL     -0.010732
     69 H29        -7.7850   -1.8260   -2.2480 h1        1 MOL      0.128173
     70 H30        -6.1080   -1.5500   -3.8330 hc        1 MOL      0.068789
     71 H31        -6.0070   -3.2590   -3.3180 hc        1 MOL      0.068789
     72 N7         -6.6470   -2.4850    0.5300 n         1 MOL     -0.329738
     73 C23        -6.5880   -3.3010    1.7490 c3        1 MOL     -0.029769
     74 C24        -5.3340   -4.2420    1.6800 c         1 MOL      0.450485
     75 O13        -5.3640   -5.2580    2.3750 o         1 MOL     -0.547618
     76 H32        -6.3590   -1.5240    0.7100 hn        1 MOL      0.247842
     77 H33        -7.4480   -3.9650    1.8370 h1        1 MOL      0.079235
     78 H34        -6.5790   -2.7090    2.6570 h1        1 MOL      0.079235
     79 N8         -4.1890   -3.8680    1.0180 n         1 MOL     -0.150093
     80 C25        -2.8940   -4.5530    1.1800 c3        1 MOL     -0.230222
     81 C26        -1.8160   -3.4230    1.1710 c         1 MOL      0.732083
     82 O14        -2.0350   -2.2940    0.6830 o         1 MOL     -0.677480
     83 C27        -2.6460   -5.5210    0.0270 c3        1 MOL      0.381236
     84 C28        -3.5460   -6.7850    0.3270 c3        1 MOL     -0.499217
     85 O15        -2.9760   -5.0220   -1.2550 oh        1 MOL     -0.595218
     86 H35        -4.2290   -3.0140    0.4700 hn        1 MOL      0.164503
     87 H36        -2.8170   -5.0280    2.1480 h1        1 MOL      0.119384
     88 H37        -1.5950   -5.7810    0.1240 h1        1 MOL      0.017612
     89 H38        -3.8900   -4.7810   -1.1340 ho        1 MOL      0.413016
     90 H39        -3.1710   -7.5800   -0.3200 hc        1 MOL      0.132854
     91 H40        -3.4920   -7.1070    1.3630 hc        1 MOL      0.132854
     92 H41        -4.6020   -6.5860    0.1800 hc        1 MOL      0.132854
     93 N9         -0.6580   -3.7080    1.8550 n         1 MOL     -0.633190
     94 C29         0.5620   -2.7790    1.9150 c3        1 MOL      0.066280
     95 C30         1.5790   -3.3650    0.9310 c         1 MOL      0.471080
     96 O16         1.9800   -4.4970    1.0280 o         1 MOL     -0.572469
     97 C31         1.1130   -2.6220    3.3350 c3        1 MOL      0.384742
     98 C32         0.0490   -2.1410    4.3780 c3        1 MOL     -0.081129
     99 C33         2.1860   -1.5320    3.3260 c3        1 MOL     -0.375336
    100 C34         0.5230   -2.1650    5.8450 c3        1 MOL     -0.062462
    101 H42        -0.6170   -4.5810    2.3530 hn        1 MOL      0.298752
    102 H43         0.2560   -1.7800    1.6130 h1        1 MOL      0.162762
    103 H44         1.6230   -3.5160    3.6780 hc        1 MOL     -0.052272
    104 H45        -0.7340   -2.8950    4.3200 hc        1 MOL      0.008777
    105 H46        -0.2370   -1.1540    4.0370 hc        1 MOL      0.008777
    106 H47         1.6720   -0.5770    3.2040 hc        1 MOL      0.055540
    107 H48         2.7400   -1.5460    4.2570 hc        1 MOL      0.055540
    108 H49         2.9460   -1.6010    2.5460 hc        1 MOL      0.055540
    109 H50         1.4110   -1.5560    6.0390 hc        1 MOL      0.018802
    110 H51        -0.1680   -1.8740    6.6380 hc        1 MOL      0.018802
    111 H52         0.8300   -3.1840    6.0870 hc        1 MOL      0.018802
    112 N10         2.1980   -2.5070    0.1580 n         1 MOL     -0.150281
    113 C35         3.3780   -2.9030   -0.5890 c3        1 MOL      0.041754
    114 C36         4.6880   -2.6230    0.1400 c         1 MOL      0.418569
    115 O17         4.7700   -1.8380    1.1020 o         1 MOL     -0.349569
    116 C37         3.4090   -2.1490   -1.9630 c3        1 MOL      0.095268
    117 C38         2.0470   -2.4230   -2.6650 c3        1 MOL     -0.284403
    118 O18         3.5940   -0.7920   -1.7000 oh        1 MOL     -0.356294
    119 H53         1.8430   -1.5630    0.2440 hn        1 MOL      0.005530
    120 H54         3.3250   -3.9550   -0.8660 h1        1 MOL      0.109204
    121 H55         4.1860   -2.5020   -2.6310 h1        1 MOL      0.023175
    122 H56         2.9960   -0.3690   -2.3250 ho        1 MOL      0.369520
    123 H57         1.9790   -3.5030   -2.7130 hc        1 MOL      0.088515
    124 H58         1.2470   -1.8640   -2.1900 hc        1 MOL      0.088515
    125 H59         2.1380   -1.9890   -3.6640 hc        1 MOL      0.088515
    126 N11         5.7830   -3.3110   -0.3090 n         1 MOL     -0.353371
    127 C39         7.1630   -2.9990    0.1630 c3        1 MOL     -0.087099
    128 C40         7.5150   -1.4920    0.1140 c         1 MOL      0.218723
    129 O19         8.1410   -0.9600    1.0450 o         1 MOL     -0.462833
    130 C41         8.1950   -3.7380   -0.7390 c3        1 MOL      0.630638
    131 C42         9.5540   -3.7670   -0.1660 c3        1 MOL     -0.494751
    132 O20         7.7330   -5.0890   -0.9070 oh        1 MOL     -0.568566
    133 H60         5.6640   -4.0410   -1.0020 hn        1 MOL      0.206297
    134 H61         7.3160   -3.3330    1.1850 h1        1 MOL      0.141778
    135 H62         8.2790   -3.1730   -1.6690 h1        1 MOL     -0.128182
    136 H63         7.9660   -5.1590   -1.8350 ho        1 MOL      0.343437
    137 H64         9.8850   -2.7410   -0.0640 hc        1 MOL      0.123820
    138 H65         9.3650   -4.2880    0.7680 hc        1 MOL      0.123820
    139 H66        10.1530   -4.3990   -0.8320 hc        1 MOL      0.123820
    140 N12         7.0050   -0.7880   -0.8790 n         1 MOL     -0.024347
    141 C43         7.1750    0.7130   -1.1280 c3        1 MOL     -0.236085
    142 C44         6.3120    1.5210   -0.1970 c         1 MOL      0.393077
    143 O21         6.7530    2.4910    0.3720 o         1 MOL     -0.496177
    144 C45         6.8960    0.9840   -2.5960 c3        1 MOL     -0.079493
    145 C46         7.2740    2.4380   -2.8750 c3        1 MOL      0.193072
    146 C47         7.2620    2.8350   -4.3190 c3        1 MOL     -0.166463
    147 C48         8.3100    2.0130   -5.1610 c3        1 MOL      0.007668
    148 N13         9.7070    2.2720   -4.7570 n4        1 MOL     -0.449932
    149 H67         6.3570   -1.3270   -1.4210 hn        1 MOL      0.107919
    150 H68         8.2430    0.9060   -0.9720 h1        1 MOL      0.149293
    151 H69         5.8540    0.6880   -2.7400 hc        1 MOL      0.024585
    152 H70         7.5550    0.2630   -3.0880 hc        1 MOL      0.024585
    153 H71         8.2480    2.7130   -2.4840 hc        1 MOL     -0.002243
    154 H72         6.6360    3.1670   -2.3720 hc        1 MOL     -0.002243
    155 H73         7.4770    3.8960   -4.3940 hc        1 MOL      0.087127
    156 H74         6.3060    2.6590   -4.8100 hc        1 MOL      0.087127
    157 H75         8.0840    2.1650   -6.2150 hx        1 MOL      0.098903
    158 H76         8.0630    0.9560   -5.0180 hx        1 MOL      0.098903
    159 H77         9.6480    3.2070   -4.3850 hn        1 MOL      0.332875
    160 H78         9.9960    1.7290   -3.9480 hn        1 MOL      0.332875
    161 H79        10.3420    2.0380   -5.5040 hn        1 MOL      0.332875
    162 N14         5.0160    1.2380   -0.0840 n         1 MOL     -0.132119
    163 C49         4.0970    1.8810    0.9360 c3        1 MOL     -0.139968
    164 C50         4.6780    1.7420    2.3790 c         1 MOL      0.388535
    165 O22         4.5760    2.7430    3.1590 o         1 MOL     -0.564222
    166 C51         2.5890    1.2930    0.8690 c3        1 MOL      0.071205
    167 C52         1.7830    1.9050   -0.2990 c3        1 MOL     -0.160684
    168 C53         0.3970    1.2300   -0.4090 c         1 MOL      0.810912
    169 O23         0.2760   -0.0550   -0.1880 o         1 MOL     -0.715161
    170 O24        -0.5530    1.8600   -0.9230 o         1 MOL     -0.715161
    171 H80         4.7140    0.3800   -0.5060 hn        1 MOL      0.030240
    172 H81         4.1160    2.9480    0.7510 h1        1 MOL      0.110131
    173 H82         2.0710    1.4300    1.8120 hc        1 MOL      0.039392
    174 H83         2.6360    0.2080    0.7170 hc        1 MOL      0.039392
    175 H84         2.3580    1.7600   -1.2090 hc        1 MOL      0.024297
    176 H85         1.5900    2.9590   -0.1540 hc        1 MOL      0.024297
    177 N15         5.2600    0.5860    2.6170 n         1 MOL      0.053420
    178 C54         5.8240    0.3180    3.8800 c3        1 MOL     -0.268627
    179 H86         5.0430   -0.0220    4.5600 h1        1 MOL      0.093762
    180 H87         6.5830   -0.4570    3.7820 h1        1 MOL      0.093762
    181 H88         6.2790    1.2260    4.2750 h1        1 MOL      0.093762
    182 H89         5.0710   -0.1850    1.9900 hn        1 MOL      0.153513
    183 Ca1        -2.0590   -0.4930   -1.4080 Ca        1 MOL      1.725253
    184 O25        -0.3180    0.1090   -3.5720 oh        1 MOL     -0.864948
    185 H90        -0.5020   -0.5010   -4.2790 ho        1 MOL      0.409772
    186 H91        -0.7310    0.9300   -3.8490 ho        1 MOL      0.409772
    187 O26        -1.1450   -3.0930   -2.0460 oh        1 MOL     -0.864948
    188 H92        -0.5670   -3.6120   -2.6040 ho        1 MOL      0.409772
    189 H93        -1.7720   -3.7270   -1.7060 ho        1 MOL      0.409772
@<TRIPOS>BOND
     1    1    2 1   
     2    1    4 1   
     3    1    5 1   
     4    1    6 1   
     5    2    3 2   
     6    2    7 1   
     7    7    8 1   
     8    7   15 1   
     9    8    9 1   
    10    8   11 1   
    11    8   16 1   
    12    9   10 2   
    13    9   19 1   
    14   11   12 1   
    15   11   17 1   
    16   11   18 1   
    17   12   13 1   
    18   12   14 1   
    19   19   20 1   
    20   19   28 1   
    21   20   21 1   
    22   20   23 1   
    23   20   29 1   
    24   21   22 2   
    25   21   41 1   
    26   23   24 1   
    27   23   30 1   
    28   23   31 1   
    29   24   25 1   
    30   24   32 1   
    31   24   33 1   
    32   25   26 1   
    33   25   34 1   
    34   25   35 1   
    35   26   27 1   
    36   26   36 1   
    37   26   37 1   
    38   27   38 1   
    39   27   39 1   
    40   27   40 1   
    41   41   42 1   
    42   41   49 1   
    43   42   43 1   
    44   42   45 1   
    45   42   50 1   
    46   43   44 2   
    47   43   53 1   
    48   45   46 1   
    49   45   51 1   
    50   45   52 1   
    51   46   47 1   
    52   46   48 1   
    53   53   54 1   
    54   53   57 1   
    55   54   55 1   
    56   54   58 1   
    57   54   59 1   
    58   55   56 2   
    59   55   60 1   
    60   60   61 1   
    61   60   68 1   
    62   61   62 1   
    63   61   64 1   
    64   61   69 1   
    65   62   63 2   
    66   62   72 1   
    67   64   65 1   
    68   64   70 1   
    69   64   71 1   
    70   65   66 1   
    71   65   67 1   
    72   72   73 1   
    73   72   76 1   
    74   73   74 1   
    75   73   77 1   
    76   73   78 1   
    77   74   75 2   
    78   74   79 1   
    79   79   80 1   
    80   79   86 1   
    81   80   81 1   
    82   80   83 1   
    83   80   87 1   
    84   81   82 2   
    85   81   93 1   
    86   83   84 1   
    87   83   85 1   
    88   83   88 1   
    89   84   90 1   
    90   84   91 1   
    91   84   92 1   
    92   85   89 1   
    93   93   94 1   
    94   93  101 1   
    95   94   95 1   
    96   94   97 1   
    97   94  102 1   
    98   95   96 2   
    99   95  112 1   
   100   97   98 1   
   101   97   99 1   
   102   97  103 1   
   103   98  100 1   
   104   98  104 1   
   105   98  105 1   
   106   99  106 1   
   107   99  107 1   
   108   99  108 1   
   109  100  109 1   
   110  100  110 1   
   111  100  111 1   
   112  112  113 1   
   113  112  119 1   
   114  113  114 1   
   115  113  116 1   
   116  113  120 1   
   117  114  115 2   
   118  114  126 1   
   119  116  117 1   
   120  116  118 1   
   121  116  121 1   
   122  117  123 1   
   123  117  124 1   
   124  117  125 1   
   125  118  122 1   
   126  126  127 1   
   127  126  133 1   
   128  127  128 1   
   129  127  130 1   
   130  127  134 1   
   131  128  129 2   
   132  128  140 1   
   133  130  131 1   
   134  130  132 1   
   135  130  135 1   
   136  131  137 1   
   137  131  138 1   
   138  131  139 1   
   139  132  136 1   
   140  140  141 1   
   141  140  149 1   
   142  141  142 1   
   143  141  144 1   
   144  141  150 1   
   145  142  143 2   
   146  142  162 1   
   147  144  145 1   
   148  144  151 1   
   149  144  152 1   
   150  145  146 1   
   151  145  153 1   
   152  145  154 1   
   153  146  147 1   
   154  146  155 1   
   155  146  156 1   
   156  147  148 1   
   157  147  157 1   
   158  147  158 1   
   159  148  159 1   
   160  148  160 1   
   161  148  161 1   
   162  162  163 1   
   163  162  171 1   
   164  163  164 1   
   165  163  166 1   
   166  163  172 1   
   167  164  165 2   
   168  164  177 1   
   169  166  167 1   
   170  166  173 1   
   171  166  174 1   
   172  167  168 1   
   173  167  175 1   
   174  167  176 1   
   175  168  169 1   
   176  168  170 1   
   177  177  178 1   
   178  177  182 1   
   179  178  179 1   
   180  178  180 1   
   181  178  181 1   
   182  184  185 1   
   183  184  186 1   
   184  187  188 1   
   185  187  189 1   
@<TRIPOS>SUBSTRUCTURE
     1 MOL         1 TEMP              0 ****  ****    0 ROOT
