@<TRIPOS>MOLECULE
MOL
  175   173     1     0     0
SMALL
resp


@<TRIPOS>ATOM
      1 C1         -0.6530    4.0740    5.5280 c3        1 MOL     -0.349978
      2 C2         -0.8410    3.4730    4.1720 c         1 MOL      0.835595
      3 O1         -0.0870    3.8750    3.2750 o         1 MOL     -0.617628
      4 H1          0.0630    4.8940    5.4650 hc        1 MOL      0.078913
      5 H2         -1.6070    4.4530    5.8930 hc        1 MOL      0.078913
      6 H3         -0.2760    3.3150    6.2130 hc        1 MOL      0.078913
      7 N1         -1.8970    2.6810    3.9160 n         1 MOL     -0.786908
      8 C3         -2.3790    2.3970    2.6180 c3        1 MOL      0.543755
      9 C4         -2.6850    3.6230    1.7410 c         1 MOL      0.449083
     10 O2         -3.5320    4.4060    2.0510 o         1 MOL     -0.599038
     11 C5         -3.6280    1.4690    2.7040 c3        1 MOL     -0.219828
     12 C6         -4.1340    0.9560    1.4310 c         1 MOL      0.765975
     13 O3         -5.3140    0.4590    1.3880 o         1 MOL     -0.713468
     14 O4         -3.4320    1.0790    0.3890 o         1 MOL     -0.713468
     15 H4         -2.4230    2.2410    4.6620 hn        1 MOL      0.322645
     16 H5         -1.5690    1.8280    2.1460 h1        1 MOL     -0.142242
     17 H6         -4.4560    2.0650    3.0870 hc        1 MOL      0.030461
     18 H7         -3.4500    0.7160    3.4720 hc        1 MOL      0.030461
     19 N2         -1.9120    3.7960    0.6770 n         1 MOL     -0.149366
     20 C7         -2.0000    4.9700   -0.2310 c3        1 MOL      0.037825
     21 C8         -3.3440    5.0280   -1.0080 c         1 MOL      0.560756
     22 O5         -3.8100    6.1590   -1.2870 o         1 MOL     -0.588709
     23 C9         -0.8020    4.8100   -1.1850 c3        1 MOL     -0.392376
     24 H8         -1.2720    3.0480    0.4520 hn        1 MOL      0.177975
     25 H9         -1.7990    5.8650    0.3510 h1        1 MOL      0.066685
     26 H10         0.0640    4.9450   -0.5340 hc        1 MOL      0.113391
     27 H11        -0.7280    3.8290   -1.6570 hc        1 MOL      0.113391
     28 H12        -0.8990    5.4840   -2.0330 hc        1 MOL      0.113391
     29 N3         -3.8880    3.8490   -1.3050 n         1 MOL     -0.430099
     30 C10        -4.9150    3.7210   -2.3370 c3        1 MOL      0.118421
     31 C11        -6.2930    3.1720   -1.9150 c         1 MOL      0.356580
     32 O6         -7.2110    3.4060   -2.6850 o         1 MOL     -0.547476
     33 C12        -4.3680    2.9390   -3.4710 c3        1 MOL     -0.027314
     34 C13        -3.6310    1.6370   -2.9960 c         1 MOL      0.597475
     35 O7         -4.3030    0.5600   -2.8900 o         1 MOL     -0.681199
     36 O8         -2.4530    1.7440   -2.6760 o         1 MOL     -0.681199
     37 H13        -3.3770    3.0140   -1.0520 hn        1 MOL      0.246395
     38 H14        -5.1240    4.7110   -2.7400 h1        1 MOL      0.066073
     39 H15        -3.7140    3.5540   -4.0830 hc        1 MOL      0.006152
     40 H16        -5.1610    2.6800   -4.1680 hc        1 MOL      0.006152
     41 N4         -6.3400    2.5110   -0.7930 n         1 MOL     -0.036707
     42 C14        -7.5620    2.0390   -0.1490 c3        1 MOL     -0.377796
     43 C15        -7.8070    0.5050   -0.1690 c         1 MOL      0.678428
     44 O9         -8.7710    0.0670    0.4580 o         1 MOL     -0.606547
     45 H17        -5.5100    2.4600   -0.2220 hn        1 MOL      0.158474
     46 H18        -8.4310    2.5190   -0.6170 h1        1 MOL      0.144884
     47 H19        -7.3840    2.2520    0.9000 h1        1 MOL      0.144884
     48 N5         -7.0550   -0.2280   -0.9850 n         1 MOL     -0.405677
     49 C16        -7.2210   -1.7070   -1.1760 c3        1 MOL      0.021527
     50 C17        -6.9130   -2.6150    0.0290 c         1 MOL      0.448290
     51 O10        -7.1880   -3.8180   -0.0710 o         1 MOL     -0.587173
     52 C18        -6.3080   -2.0380   -2.4160 c3        1 MOL     -0.250575
     53 C19        -5.0080   -2.6310   -2.0470 c         1 MOL      0.692646
     54 N6         -4.5540   -3.8060   -2.5690 n         1 MOL     -0.690550
     55 O11        -4.2790   -2.1030   -1.2410 o         1 MOL     -0.741941
     56 H20        -6.2430    0.2040   -1.4060 hn        1 MOL      0.247195
     57 H21        -8.2500   -2.0060   -1.3750 h1        1 MOL      0.108064
     58 H22        -6.0990   -1.1390   -2.9860 hc        1 MOL      0.098740
     59 H23        -6.9580   -2.7080   -2.9810 hc        1 MOL      0.098740
     60 H24        -5.1580   -4.3520   -3.1740 hn        1 MOL      0.320008
     61 H25        -3.7430   -4.1700   -2.0960 hn        1 MOL      0.320008
     62 N7         -6.3940   -2.1260    1.1610 n         1 MOL     -0.118379
     63 C20        -6.1360   -2.8110    2.4550 c3        1 MOL     -0.199164
     64 C21        -4.9520   -3.7660    2.4480 c         1 MOL      0.558703
     65 O12        -4.8670   -4.5580    3.3730 o         1 MOL     -0.567030
     66 H26        -6.1830   -1.1480    1.0910 hn        1 MOL      0.197216
     67 H27        -7.0140   -3.3590    2.8000 h1        1 MOL      0.112860
     68 H28        -5.9590   -2.1650    3.3080 h1        1 MOL      0.112860
     69 N8         -3.9760   -3.6180    1.5460 n         1 MOL     -0.351169
     70 C22        -2.5790   -4.0760    1.6790 c3        1 MOL     -0.059400
     71 C23        -1.5390   -2.9200    1.4470 c         1 MOL      0.745083
     72 O13        -1.9670   -1.9690    0.7760 o         1 MOL     -0.690494
     73 C24        -2.3250   -5.1780    0.6560 c3        1 MOL      0.298085
     74 C25        -3.4690   -6.2140    0.6570 c3        1 MOL     -0.359440
     75 O14        -2.2960   -4.8950   -0.6910 oh        1 MOL     -0.691238
     76 H29        -4.2190   -3.1280    0.7030 hn        1 MOL      0.322864
     77 H30        -2.3050   -4.5180    2.6410 h1        1 MOL      0.088599
     78 H31        -1.3720   -5.6550    0.8740 h1        1 MOL      0.027740
     79 H32        -2.5700   -5.6180   -1.2510 ho        1 MOL      0.444385
     80 H33        -3.7240   -6.6840    1.6120 hc        1 MOL      0.093561
     81 H34        -4.2980   -5.8810    0.0370 hc        1 MOL      0.093561
     82 H35        -3.1630   -7.0760    0.0730 hc        1 MOL      0.093561
     83 N9         -0.3480   -2.9290    2.0810 n         1 MOL     -0.532778
     84 C26         0.7390   -1.9170    1.7490 c3        1 MOL      0.011723
     85 C27         1.7750   -2.5700    0.7950 c         1 MOL      0.443329
     86 O15         2.4170   -3.6250    1.1590 o         1 MOL     -0.572483
     87 C28         1.4140   -1.3400    2.9850 c3        1 MOL      0.390847
     88 C29         1.8610   -2.3360    4.0740 c3        1 MOL     -0.123759
     89 C30         0.4790   -0.1840    3.4190 c3        1 MOL     -0.692989
     90 C31         2.5990   -1.5890    5.1510 c3        1 MOL     -0.065986
     91 H36        -0.0010   -3.7650    2.5300 hn        1 MOL      0.265606
     92 H37         0.2140   -1.1230    1.2270 h1        1 MOL      0.125858
     93 H38         2.3940   -0.9620    2.6760 hc        1 MOL     -0.054776
     94 H39         2.4900   -3.1020    3.6260 hc        1 MOL      0.023814
     95 H40         0.8940   -2.7310    4.3860 hc        1 MOL      0.023814
     96 H41        -0.4250   -0.6400    3.8150 hc        1 MOL      0.171469
     97 H42         1.1030    0.4560    4.0480 hc        1 MOL      0.171469
     98 H43         0.1440    0.3260    2.5180 hc        1 MOL      0.171469
     99 H44         3.1120   -2.2800    5.8330 hc        1 MOL      0.014583
    100 H45         3.3630   -0.9090    4.7910 hc        1 MOL      0.014583
    101 H46         1.9650   -0.9260    5.7330 hc        1 MOL      0.014583
    102 N10         1.9690   -2.0200   -0.4160 n         1 MOL     -0.288288
    103 C32         3.1610   -2.2850   -1.2450 c3        1 MOL      0.088089
    104 C33         4.4370   -1.6170   -0.7390 c         1 MOL      0.395873
    105 O16         4.4640   -0.9720    0.3410 o         1 MOL     -0.386376
    106 C34         2.7770   -1.7850   -2.6720 c3        1 MOL     -0.031296
    107 C35         3.5910   -2.0900   -3.9400 c         1 MOL      0.589731
    108 O17         4.5800   -2.8640   -3.8400 o         1 MOL     -0.691543
    109 O18         3.2110   -1.5080   -5.0550 o         1 MOL     -0.691543
    110 H47         1.3930   -1.2060   -0.5830 hn        1 MOL      0.097584
    111 H48         3.3430   -3.3570   -1.2970 h1        1 MOL      0.081839
    112 H49         2.6020   -0.7180   -2.6410 hc        1 MOL      0.003551
    113 H50         1.8440   -2.3400   -2.8300 hc        1 MOL      0.003551
    114 N11         5.6240   -1.8370   -1.3510 n         1 MOL     -0.588692
    115 C36         6.9130   -1.2330   -0.8170 c3        1 MOL      0.485715
    116 C37         6.9190    0.3350   -0.6540 c         1 MOL      0.300593
    117 O19         7.3050    0.7910    0.4490 o         1 MOL     -0.476140
    118 C38         8.1830   -1.7210   -1.5500 c3        1 MOL     -0.335074
    119 C39         9.4160   -1.3970   -0.7220 ca        1 MOL      0.226121
    120 C40         9.6260   -2.1910    0.3470 ca        1 MOL     -0.280983
    121 C41        10.2930   -0.3490   -1.1250 ca        1 MOL     -0.280983
    122 C42        10.7140   -1.8380    1.1930 ca        1 MOL      0.013430
    123 C43        11.3360   -0.0220   -0.2660 ca        1 MOL      0.013430
    124 C44        11.5280   -0.7760    0.9290 ca        1 MOL     -0.267055
    125 H51         5.7200   -2.3870   -2.1980 hn        1 MOL      0.285156
    126 H52         7.1010   -1.5950    0.1950 h1        1 MOL     -0.003701
    127 H53         8.2510   -1.1430   -2.4840 hc        1 MOL      0.093322
    128 H54         8.2070   -2.7980   -1.7080 hc        1 MOL      0.093322
    129 H55         8.9960   -3.0470    0.5430 ha        1 MOL      0.149999
    130 H56        10.1070    0.2820   -1.9930 ha        1 MOL      0.149999
    131 H57        10.8890   -2.5420    1.9900 ha        1 MOL      0.079354
    132 H58        11.9630    0.8290   -0.4810 ha        1 MOL      0.079354
    133 H59        12.2350   -0.4360    1.6750 ha        1 MOL      0.133830
    134 N12         6.5960    1.1690   -1.6900 n         1 MOL     -0.207872
    135 C45         6.4060    2.6180   -1.5150 c3        1 MOL      0.083544
    136 C46         5.5450    2.8760   -0.2700 c         1 MOL      0.209304
    137 O20         5.7510    3.9210    0.3630 o         1 MOL     -0.499732
    138 C47         5.7540    2.9490   -2.7910 c3        1 MOL      0.099387
    139 C48         5.9690    1.8870   -3.8310 c3        1 MOL     -0.036649
    140 C49         6.0770    0.6730   -2.9670 c3        1 MOL     -0.109134
    141 H60         7.3750    3.1030   -1.5280 h1        1 MOL      0.046473
    142 H61         4.6720    2.9520   -2.6410 hc        1 MOL     -0.010978
    143 H62         6.0170    3.9600   -3.0950 hc        1 MOL     -0.010978
    144 H63         5.1560    2.0210   -4.5420 hc        1 MOL      0.024798
    145 H64         6.8870    2.1110   -4.3610 hc        1 MOL      0.024798
    146 H65         5.0470    0.3580   -2.7850 h1        1 MOL      0.087549
    147 H66         6.7680   -0.0410   -3.4260 h1        1 MOL      0.087549
    148 N13         4.5640    2.0400    0.0530 n         1 MOL     -0.201508
    149 C50         3.6630    2.2540    1.1990 c3        1 MOL     -0.156407
    150 C51         4.2520    1.7270    2.5370 c         1 MOL      0.492723
    151 O21         3.9300    2.3510    3.5880 o         1 MOL     -0.571735
    152 C52         2.3670    1.5670    0.8780 c3        1 MOL      0.310739
    153 C53         1.8480    1.7670   -0.5950 c3        1 MOL     -0.212605
    154 C54         0.5050    0.9860   -0.8430 c         1 MOL      0.667373
    155 O22         0.4140    0.2190   -1.8600 o         1 MOL     -0.671313
    156 O23        -0.4800    1.0580   -0.0550 o         1 MOL     -0.671313
    157 H67         4.5960    1.1660   -0.4560 hn        1 MOL      0.421293
    158 H68         3.4470    3.2910    1.4630 h1        1 MOL      0.118707
    159 H69         1.5610    1.9280    1.5120 hc        1 MOL     -0.037698
    160 H70         2.5390    0.5160    1.1140 hc        1 MOL     -0.037698
    161 H71         2.6090    1.4210   -1.3020 hc        1 MOL      0.022358
    162 H72         1.6760    2.8390   -0.6700 hc        1 MOL      0.022358
    163 N14         5.1790    0.7270    2.5400 n         1 MOL      0.012388
    164 C55         5.9960    0.3650    3.6600 c3        1 MOL     -0.312320
    165 H73         6.9230    0.9380    3.6330 h1        1 MOL      0.099535
    166 H74         5.4620    0.5830    4.5850 h1        1 MOL      0.099535
    167 H75         6.2260   -0.6990    3.6150 h1        1 MOL      0.099535
    168 H76         5.2000    0.1110    1.7400 hn        1 MOL      0.045485
    169 Ca1        -2.2630   -0.3920   -1.2990 Ca        1 MOL      1.730332
    170 O24        -0.8880   -2.7350   -1.6870 oh        1 MOL     -0.749208
    171 H77        -1.2400   -3.5250   -1.2780 ho        1 MOL      0.376321
    172 H78        -0.6460   -3.0070   -2.5770 ho        1 MOL      0.376321
    173 O25        -1.9910   -1.2030   -3.8690 oh        1 MOL     -0.749208
    174 H79        -1.8510   -1.9330   -4.4720 ho        1 MOL      0.376321
    175 H80        -1.2840   -0.5830   -4.0590 ho        1 MOL      0.376321
@<TRIPOS>BOND
     1    1    2 1   
     2    1    4 1   
     3    1    5 1   
     4    1    6 1   
     5    2    3 2   
     6    2    7 1   
     7    7    8 1   
     8    7   15 1   
     9    8    9 1   
    10    8   11 1   
    11    8   16 1   
    12    9   10 2   
    13    9   19 1   
    14   11   12 1   
    15   11   17 1   
    16   11   18 1   
    17   12   13 1   
    18   12   14 1   
    19   19   20 1   
    20   19   24 1   
    21   20   21 1   
    22   20   23 1   
    23   20   25 1   
    24   21   22 2   
    25   21   29 1   
    26   23   26 1   
    27   23   27 1   
    28   23   28 1   
    29   29   30 1   
    30   29   37 1   
    31   30   31 1   
    32   30   33 1   
    33   30   38 1   
    34   31   32 2   
    35   31   41 1   
    36   33   34 1   
    37   33   39 1   
    38   33   40 1   
    39   34   35 1   
    40   34   36 1   
    41   41   42 1   
    42   41   45 1   
    43   42   43 1   
    44   42   46 1   
    45   42   47 1   
    46   43   44 2   
    47   43   48 1   
    48   48   49 1   
    49   48   56 1   
    50   49   50 1   
    51   49   52 1   
    52   49   57 1   
    53   50   51 2   
    54   50   62 1   
    55   52   53 1   
    56   52   58 1   
    57   52   59 1   
    58   53   54 1   
    59   53   55 2   
    60   54   60 1   
    61   54   61 1   
    62   62   63 1   
    63   62   66 1   
    64   63   64 1   
    65   63   67 1   
    66   63   68 1   
    67   64   65 2   
    68   64   69 1   
    69   69   70 1   
    70   69   76 1   
    71   70   71 1   
    72   70   73 1   
    73   70   77 1   
    74   71   72 2   
    75   71   83 1   
    76   73   74 1   
    77   73   75 1   
    78   73   78 1   
    79   74   80 1   
    80   74   81 1   
    81   74   82 1   
    82   75   79 1   
    83   83   84 1   
    84   83   91 1   
    85   84   85 1   
    86   84   87 1   
    87   84   92 1   
    88   85   86 2   
    89   85  102 1   
    90   87   88 1   
    91   87   89 1   
    92   87   93 1   
    93   88   90 1   
    94   88   94 1   
    95   88   95 1   
    96   89   96 1   
    97   89   97 1   
    98   89   98 1   
    99   90   99 1   
   100   90  100 1   
   101   90  101 1   
   102  102  103 1   
   103  102  110 1   
   104  103  104 1   
   105  103  106 1   
   106  103  111 1   
   107  104  105 2   
   108  104  114 1   
   109  106  107 1   
   110  106  112 1   
   111  106  113 1   
   112  107  108 1   
   113  107  109 1   
   114  114  115 1   
   115  114  125 1   
   116  115  116 1   
   117  115  118 1   
   118  115  126 1   
   119  116  117 2   
   120  116  134 1   
   121  118  119 1   
   122  118  127 1   
   123  118  128 1   
   124  119  120 ar  
   125  119  121 ar  
   126  120  122 ar  
   127  120  129 1   
   128  121  123 ar  
   129  121  130 1   
   130  122  124 ar  
   131  122  131 1   
   132  123  124 ar  
   133  123  132 1   
   134  124  133 1   
   135  134  135 1   
   136  134  140 1   
   137  135  136 1   
   138  135  138 1   
   139  135  141 1   
   140  136  137 2   
   141  136  148 1   
   142  138  139 1   
   143  138  142 1   
   144  138  143 1   
   145  139  140 1   
   146  139  144 1   
   147  139  145 1   
   148  140  146 1   
   149  140  147 1   
   150  148  149 1   
   151  148  157 1   
   152  149  150 1   
   153  149  152 1   
   154  149  158 1   
   155  150  151 2   
   156  150  163 1   
   157  152  153 1   
   158  152  159 1   
   159  152  160 1   
   160  153  154 1   
   161  153  161 1   
   162  153  162 1   
   163  154  155 1   
   164  154  156 1   
   165  163  164 1   
   166  163  168 1   
   167  164  165 1   
   168  164  166 1   
   169  164  167 1   
   170  170  171 1   
   171  170  172 1   
   172  173  174 1   
   173  173  175 1   
@<TRIPOS>SUBSTRUCTURE
     1 MOL         1 TEMP              0 ****  ****    0 ROOT
