@<TRIPOS>MOLECULE
MOL
  189   185     1     0     0
SMALL
resp


@<TRIPOS>ATOM
      1 C1          0.1890    2.3240    5.3180 c3        1 MOL     -0.282210
      2 C2         -0.2950    2.2720    3.8910 c         1 MOL      0.734390
      3 O1          0.4250    2.7890    3.0070 o         1 MOL     -0.596438
      4 H1          0.4740    1.3230    5.6420 hc        1 MOL      0.072586
      5 H2          1.0520    2.9870    5.3850 hc        1 MOL      0.072586
      6 H3         -0.6080    2.7000    5.9590 hc        1 MOL      0.072586
      7 N1         -1.5400    1.7480    3.6300 n         1 MOL     -0.667218
      8 C3         -2.1410    1.5770    2.3140 c3        1 MOL      0.547421
      9 C4         -2.7540    2.8700    1.8860 c         1 MOL      0.113252
     10 O2         -3.8220    3.2470    2.4760 o         1 MOL     -0.527773
     11 C5         -3.3120    0.5340    2.3700 c3        1 MOL     -0.545321
     12 C6         -3.9230    0.2720    1.0110 c         1 MOL      0.826592
     13 O3         -3.3940    0.6620   -0.0540 o         1 MOL     -0.623248
     14 O4         -5.0710   -0.2250    1.0090 o         1 MOL     -0.623248
     15 H4         -2.1370    1.4630    4.3910 hn        1 MOL      0.327682
     16 H5         -1.4100    1.2620    1.5830 h1        1 MOL     -0.106723
     17 H6         -4.0600    0.8370    3.1090 hc        1 MOL      0.127025
     18 H7         -2.8420   -0.4090    2.6580 hc        1 MOL      0.127025
     19 N2         -2.0990    3.5190    0.9860 n         1 MOL      0.054260
     20 C7         -2.4940    4.7610    0.4000 c3        1 MOL     -0.072714
     21 C8         -3.4090    4.6860   -0.8070 c         1 MOL      0.486652
     22 O5         -3.6800    5.6850   -1.4380 o         1 MOL     -0.549789
     23 C9         -1.2170    5.6110    0.0970 c3        1 MOL      0.301657
     24 C10        -0.3760    5.9710    1.3370 c3        1 MOL     -0.037518
     25 C11        -1.1120    6.2840    2.5950 c3        1 MOL     -0.341357
     26 C12        -2.1890    7.4230    2.6430 c3        1 MOL      0.223812
     27 N3         -2.8380    7.6170    3.9420 n4        1 MOL     -0.390616
     28 H8         -1.3020    3.0260    0.6060 hn        1 MOL      0.221702
     29 H9         -3.1120    5.2530    1.1490 h1        1 MOL      0.010208
     30 H10        -1.5720    6.5720   -0.2630 hc        1 MOL     -0.059601
     31 H11        -0.6480    5.1890   -0.7280 hc        1 MOL     -0.059601
     32 H12         0.2860    6.7850    1.0590 hc        1 MOL      0.030587
     33 H13         0.2230    5.0880    1.5760 hc        1 MOL      0.030587
     34 H14        -0.3320    6.5870    3.2980 hc        1 MOL      0.095454
     35 H15        -1.4820    5.3270    2.9350 hc        1 MOL      0.095454
     36 H16        -2.9780    7.2730    1.8980 hx        1 MOL      0.043753
     37 H17        -1.8440    8.4180    2.3530 hx        1 MOL      0.043753
     38 H18        -2.1970    8.0650    4.5830 hn        1 MOL      0.330049
     39 H19        -3.5830    8.2940    3.9260 hn        1 MOL      0.330049
     40 H20        -3.0720    6.7020    4.2970 hn        1 MOL      0.330049
     41 N4         -3.8500    3.4680   -1.2160 n         1 MOL     -0.077575
     42 C13        -4.8380    3.1870   -2.2510 c3        1 MOL     -0.116445
     43 C14        -6.2220    2.7880   -1.8160 c         1 MOL      0.391975
     44 O6         -7.1980    2.9560   -2.5480 o         1 MOL     -0.517531
     45 C15        -4.3560    2.1050   -3.2920 c3        1 MOL      0.039637
     46 C16        -2.8730    2.2780   -3.5320 c         1 MOL      0.629971
     47 O7         -2.4550    3.0800   -4.3800 o         1 MOL     -0.631456
     48 O8         -2.0640    1.6330   -2.8340 o         1 MOL     -0.631456
     49 H21        -3.4780    2.6760   -0.7060 hn        1 MOL     -0.016738
     50 H22        -5.0030    4.0900   -2.8300 h1        1 MOL      0.101923
     51 H23        -4.7610    2.2540   -4.2870 hc        1 MOL      0.011521
     52 H24        -4.5620    1.0780   -3.0070 hc        1 MOL      0.011521
     53 N5         -6.2730    2.0500   -0.7460 n         1 MOL     -0.262491
     54 C17        -7.4800    1.4630   -0.2520 c3        1 MOL     -0.101462
     55 C18        -7.7640    0.1290   -0.9720 c         1 MOL      0.424835
     56 O9         -8.8670   -0.3170   -1.2370 o         1 MOL     -0.549005
     57 H25        -5.4330    1.8510   -0.2240 hn        1 MOL      0.216847
     58 H26        -8.2820    2.1970   -0.2360 h1        1 MOL      0.093352
     59 H27        -7.3230    1.2010    0.7930 h1        1 MOL      0.093352
     60 N6         -6.6500   -0.6090   -1.2980 n         1 MOL      0.006390
     61 C19        -6.7120   -1.9160   -2.0460 c3        1 MOL     -0.198973
     62 C20        -6.7340   -3.1690   -1.1370 c         1 MOL      0.513428
     63 O10        -7.1320   -4.2390   -1.5760 o         1 MOL     -0.539351
     64 C21        -5.6270   -1.9530   -3.1170 c3        1 MOL     -0.082391
     65 C22        -4.1840   -1.7550   -2.5740 c         1 MOL      0.590519
     66 O11        -3.8560   -2.0550   -1.3760 o         1 MOL     -0.736797
     67 O12        -3.3030   -1.1420   -3.3150 o         1 MOL     -0.736797
     68 H28        -5.7300   -0.3990   -0.9490 hn        1 MOL      0.079416
     69 H29        -7.6410   -1.8430   -2.6110 h1        1 MOL      0.136377
     70 H30        -5.8720   -1.1080   -3.7620 hc        1 MOL      0.061984
     71 H31        -5.7110   -2.8980   -3.6620 hc        1 MOL      0.061984
     72 N7         -6.4030   -2.9260    0.1400 n         1 MOL     -0.295281
     73 C23        -6.3620   -3.9670    1.2310 c3        1 MOL     -0.064456
     74 C24        -4.9910   -4.5550    1.4730 c         1 MOL      0.620819
     75 O13        -4.8980   -5.5190    2.2430 o         1 MOL     -0.604344
     76 H32        -6.0910   -1.9790    0.2890 hn        1 MOL      0.185473
     77 H33        -6.9780   -4.8540    1.1060 h1        1 MOL      0.074601
     78 H34        -6.5480   -3.5630    2.2280 h1        1 MOL      0.074601
     79 N8         -3.9860   -3.9990    0.8520 n         1 MOL     -0.336570
     80 C25        -2.6390   -4.5810    0.8020 c3        1 MOL     -0.337122
     81 C26        -1.5810   -3.4670    0.9190 c         1 MOL      0.696396
     82 O14        -1.7470   -2.3410    0.2980 o         1 MOL     -0.683781
     83 C27        -2.3250   -5.3830   -0.4880 c3        1 MOL      0.523212
     84 C28        -2.6340   -6.8460   -0.1930 c3        1 MOL     -0.472675
     85 O15        -3.2270   -5.0140   -1.4910 oh        1 MOL     -0.667176
     86 H35        -3.9750   -3.1770    0.2560 hn        1 MOL      0.296941
     87 H36        -2.5840   -5.2660    1.6500 h1        1 MOL      0.150537
     88 H37        -1.2800   -5.2930   -0.7920 h1        1 MOL     -0.048574
     89 H38        -3.4990   -4.0940   -1.4570 ho        1 MOL      0.460611
     90 H39        -3.6730   -6.9150    0.1340 hc        1 MOL      0.130345
     91 H40        -2.3910   -7.4480   -1.0740 hc        1 MOL      0.130345
     92 H41        -2.1090   -7.1910    0.7010 hc        1 MOL      0.130345
     93 N9         -0.5460   -3.7880    1.6440 n         1 MOL     -0.568173
     94 C29         0.6800   -2.9800    1.8450 c3        1 MOL      0.055328
     95 C30         1.8080   -3.5930    0.9770 c         1 MOL      0.375328
     96 O16         2.1660   -4.8290    1.0480 o         1 MOL     -0.553542
     97 C31         1.2160   -2.8520    3.2760 c3        1 MOL      0.339173
     98 C32         0.1280   -2.8420    4.2940 c3        1 MOL      0.044479
     99 C33         2.1590   -1.5710    3.3740 c3        1 MOL     -0.698222
    100 C34         0.6860   -3.1670    5.7230 c3        1 MOL     -0.046038
    101 H42        -0.6110   -4.6730    2.1180 hn        1 MOL      0.318603
    102 H43         0.4730   -1.9460    1.5730 h1        1 MOL      0.086709
    103 H44         1.8840   -3.6950    3.4450 hc        1 MOL     -0.051075
    104 H45        -0.5510   -3.6580    4.0380 hc        1 MOL     -0.029428
    105 H46        -0.3810   -1.8750    4.3650 hc        1 MOL     -0.029428
    106 H47         1.5400   -0.6730    3.3310 hc        1 MOL      0.153173
    107 H48         2.6050   -1.5960    4.3620 hc        1 MOL      0.153173
    108 H49         2.9160   -1.5720    2.5870 hc        1 MOL      0.153173
    109 H50         1.4410   -2.4000    5.9080 hc        1 MOL      0.011529
    110 H51        -0.0320   -3.1380    6.5500 hc        1 MOL      0.011529
    111 H52         1.1640   -4.1300    5.8860 hc        1 MOL      0.011529
    112 N10         2.3990   -2.6950    0.2600 n         1 MOL     -0.050700
    113 C35         3.6990   -2.9410   -0.4540 c3        1 MOL     -0.020519
    114 C36         4.9820   -2.4950    0.3450 c         1 MOL      0.297318
    115 O17         4.9740   -1.7190    1.3040 o         1 MOL     -0.305183
    116 C37         3.7140   -2.0840   -1.7040 c3        1 MOL      0.019896
    117 C38         2.5760   -2.5620   -2.6210 c3        1 MOL     -0.217087
    118 O18         3.5560   -0.7520   -1.4340 oh        1 MOL     -0.394518
    119 H53         2.0840   -1.7440    0.3830 hn        1 MOL      0.241959
    120 H54         3.7760   -4.0220   -0.5750 h1        1 MOL      0.083345
    121 H55         4.6060   -2.2300   -2.3170 h1        1 MOL      0.092547
    122 H56         2.6530   -0.6240   -1.1230 ho        1 MOL      0.339248
    123 H57         2.6780   -3.6320   -2.8150 hc        1 MOL      0.057155
    124 H58         1.5950   -2.3030   -2.2240 hc        1 MOL      0.057155
    125 H59         2.7370   -2.1400   -3.6100 hc        1 MOL      0.057155
    126 N11         6.1030   -3.0320   -0.0800 n         1 MOL     -0.269944
    127 C39         7.4680   -2.6640    0.2720 c3        1 MOL     -0.087063
    128 C40         7.6610   -1.1740    0.2740 c         1 MOL      0.276114
    129 O19         8.4300   -0.6570    1.1400 o         1 MOL     -0.506582
    130 C41         8.5420   -3.2640   -0.6430 c3        1 MOL      0.150032
    131 C42         8.6940   -4.7920   -0.4030 c3        1 MOL     -0.340203
    132 O20         8.1480   -3.1960   -1.9680 oh        1 MOL     -0.660129
    133 H60         5.9210   -3.7170   -0.8020 hn        1 MOL      0.278831
    134 H61         7.7970   -3.0370    1.2380 h1        1 MOL      0.153087
    135 H62         9.4930   -2.7310   -0.6800 h1        1 MOL      0.102396
    136 H63         8.8110   -3.6610   -2.4870 ho        1 MOL      0.438841
    137 H64         7.7240   -5.2550   -0.5790 hc        1 MOL      0.104681
    138 H65         9.4250   -5.2880   -1.0350 hc        1 MOL      0.104681
    139 H66         8.9600   -5.0010    0.6310 hc        1 MOL      0.104681
    140 N12         6.9950   -0.4870   -0.6340 n         1 MOL      0.107088
    141 C43         7.2070    0.9330   -0.9120 c3        1 MOL     -0.093575
    142 C44         6.2900    1.7930   -0.0570 c         1 MOL      0.338103
    143 O21         6.6910    2.8420    0.4600 o         1 MOL     -0.502371
    144 C45         7.0040    1.0720   -2.3970 c3        1 MOL     -0.069736
    145 C46         7.4710    2.4300   -2.8180 c3        1 MOL      0.053106
    146 C47         7.5210    2.6840   -4.2980 c3        1 MOL      0.059562
    147 C48         8.1590    4.0510   -4.5000 c3        1 MOL      0.005007
    148 N13         8.5700    4.2540   -5.9120 n4        1 MOL     -0.372286
    149 H67         6.5410   -1.0580   -1.3390 hn        1 MOL      0.122398
    150 H68         8.2360    1.1720   -0.6420 h1        1 MOL      0.100505
    151 H69         5.9620    0.9340   -2.6720 hc        1 MOL      0.037897
    152 H70         7.6760    0.3660   -2.8980 hc        1 MOL      0.037897
    153 H71         8.5300    2.5180   -2.5750 hc        1 MOL      0.001118
    154 H72         7.0940    3.2710   -2.2350 hc        1 MOL      0.001118
    155 H73         6.5650    2.5250   -4.7920 hc        1 MOL      0.004330
    156 H74         8.1360    1.9080   -4.7500 hc        1 MOL      0.004330
    157 H75         9.0360    4.2200   -3.8720 hx        1 MOL      0.095188
    158 H76         7.3550    4.7170   -4.1940 hx        1 MOL      0.095188
    159 H77         7.7550    4.1170   -6.4940 hn        1 MOL      0.285325
    160 H78         8.8420    5.1990   -6.1290 hn        1 MOL      0.285325
    161 H79         9.3450    3.6250   -6.0570 hn        1 MOL      0.285325
    162 N14         5.0760    1.3820    0.2050 n         1 MOL      0.018151
    163 C49         4.1880    2.0110    1.2050 c3        1 MOL     -0.061168
    164 C50         4.6850    1.8980    2.6790 c         1 MOL      0.370947
    165 O22         4.6590    2.8550    3.4270 o         1 MOL     -0.516791
    166 C51         2.8110    1.3950    0.9990 c3        1 MOL      0.098327
    167 C52         2.0780    1.8550   -0.2620 c3        1 MOL     -0.266782
    168 C53         0.8330    1.0290   -0.3740 c         1 MOL      0.950204
    169 O23         0.8860   -0.2460   -0.4200 o         1 MOL     -0.812481
    170 O24        -0.2610    1.6370   -0.5110 o         1 MOL     -0.812481
    171 H80         4.7990    0.4310    0.0330 hn        1 MOL     -0.197550
    172 H81         4.1700    3.0790    1.0040 h1        1 MOL      0.095086
    173 H82         2.2000    1.4950    1.8950 hc        1 MOL      0.017891
    174 H83         2.8410    0.3030    0.9540 hc        1 MOL      0.017891
    175 H84         2.6350    1.6180   -1.1660 hc        1 MOL      0.055710
    176 H85         1.8780    2.9240   -0.2280 hc        1 MOL      0.055710
    177 N15         5.3120    0.7760    2.9550 n         1 MOL     -0.013387
    178 C54         6.0070    0.6530    4.3090 c3        1 MOL     -0.290838
    179 H86         6.2130   -0.3970    4.5170 h1        1 MOL      0.110710
    180 H87         6.9430    1.2100    4.2900 h1        1 MOL      0.110710
    181 H88         5.3590    1.0560    5.0880 h1        1 MOL      0.110710
    182 H89         5.1950   -0.0490    2.3760 hn        1 MOL      0.135143
    183 Ca1        -1.5750   -0.4820   -1.4450 Ca        1 MOL      1.731983
    184 O25         0.1300   -0.4860   -3.4790 oh        1 MOL     -0.821559
    185 H90         0.3460   -1.2180   -4.0710 ho        1 MOL      0.403239
    186 H91         0.2780    0.2940   -4.0070 ho        1 MOL      0.403239
    187 O26        -0.8900   -2.9750   -2.1170 oh        1 MOL     -0.821559
    188 H92        -1.5530   -3.6270   -1.9070 ho        1 MOL      0.403239
    189 H93        -0.5080   -3.2680   -2.9360 ho        1 MOL      0.403239
@<TRIPOS>BOND
     1    1    2 1   
     2    1    4 1   
     3    1    5 1   
     4    1    6 1   
     5    2    3 2   
     6    2    7 1   
     7    7    8 1   
     8    7   15 1   
     9    8    9 1   
    10    8   11 1   
    11    8   16 1   
    12    9   10 2   
    13    9   19 1   
    14   11   12 1   
    15   11   17 1   
    16   11   18 1   
    17   12   13 1   
    18   12   14 1   
    19   19   20 1   
    20   19   28 1   
    21   20   21 1   
    22   20   23 1   
    23   20   29 1   
    24   21   22 2   
    25   21   41 1   
    26   23   24 1   
    27   23   30 1   
    28   23   31 1   
    29   24   25 1   
    30   24   32 1   
    31   24   33 1   
    32   25   26 1   
    33   25   34 1   
    34   25   35 1   
    35   26   27 1   
    36   26   36 1   
    37   26   37 1   
    38   27   38 1   
    39   27   39 1   
    40   27   40 1   
    41   41   42 1   
    42   41   49 1   
    43   42   43 1   
    44   42   45 1   
    45   42   50 1   
    46   43   44 2   
    47   43   53 1   
    48   45   46 1   
    49   45   51 1   
    50   45   52 1   
    51   46   47 1   
    52   46   48 1   
    53   53   54 1   
    54   53   57 1   
    55   54   55 1   
    56   54   58 1   
    57   54   59 1   
    58   55   56 2   
    59   55   60 1   
    60   60   61 1   
    61   60   68 1   
    62   61   62 1   
    63   61   64 1   
    64   61   69 1   
    65   62   63 2   
    66   62   72 1   
    67   64   65 1   
    68   64   70 1   
    69   64   71 1   
    70   65   66 1   
    71   65   67 1   
    72   72   73 1   
    73   72   76 1   
    74   73   74 1   
    75   73   77 1   
    76   73   78 1   
    77   74   75 2   
    78   74   79 1   
    79   79   80 1   
    80   79   86 1   
    81   80   81 1   
    82   80   83 1   
    83   80   87 1   
    84   81   82 2   
    85   81   93 1   
    86   83   84 1   
    87   83   85 1   
    88   83   88 1   
    89   84   90 1   
    90   84   91 1   
    91   84   92 1   
    92   85   89 1   
    93   93   94 1   
    94   93  101 1   
    95   94   95 1   
    96   94   97 1   
    97   94  102 1   
    98   95   96 2   
    99   95  112 1   
   100   97   98 1   
   101   97   99 1   
   102   97  103 1   
   103   98  100 1   
   104   98  104 1   
   105   98  105 1   
   106   99  106 1   
   107   99  107 1   
   108   99  108 1   
   109  100  109 1   
   110  100  110 1   
   111  100  111 1   
   112  112  113 1   
   113  112  119 1   
   114  113  114 1   
   115  113  116 1   
   116  113  120 1   
   117  114  115 2   
   118  114  126 1   
   119  116  117 1   
   120  116  118 1   
   121  116  121 1   
   122  117  123 1   
   123  117  124 1   
   124  117  125 1   
   125  118  122 1   
   126  126  127 1   
   127  126  133 1   
   128  127  128 1   
   129  127  130 1   
   130  127  134 1   
   131  128  129 2   
   132  128  140 1   
   133  130  131 1   
   134  130  132 1   
   135  130  135 1   
   136  131  137 1   
   137  131  138 1   
   138  131  139 1   
   139  132  136 1   
   140  140  141 1   
   141  140  149 1   
   142  141  142 1   
   143  141  144 1   
   144  141  150 1   
   145  142  143 2   
   146  142  162 1   
   147  144  145 1   
   148  144  151 1   
   149  144  152 1   
   150  145  146 1   
   151  145  153 1   
   152  145  154 1   
   153  146  147 1   
   154  146  155 1   
   155  146  156 1   
   156  147  148 1   
   157  147  157 1   
   158  147  158 1   
   159  148  159 1   
   160  148  160 1   
   161  148  161 1   
   162  162  163 1   
   163  162  171 1   
   164  163  164 1   
   165  163  166 1   
   166  163  172 1   
   167  164  165 2   
   168  164  177 1   
   169  166  167 1   
   170  166  173 1   
   171  166  174 1   
   172  167  168 1   
   173  167  175 1   
   174  167  176 1   
   175  168  169 1   
   176  168  170 1   
   177  177  178 1   
   178  177  182 1   
   179  178  179 1   
   180  178  180 1   
   181  178  181 1   
   182  184  185 1   
   183  184  186 1   
   184  187  188 1   
   185  187  189 1   
@<TRIPOS>SUBSTRUCTURE
     1 MOL         1 TEMP              0 ****  ****    0 ROOT
