@<TRIPOS>MOLECULE
MOL
  189   185     1     0     0
SMALL
resp


@<TRIPOS>ATOM
      1 C1          0.9130    2.4510    4.7080 c3        1 MOL     -0.406843
      2 C2          0.1600    2.2540    3.3630 c         1 MOL      0.580609
      3 O1          0.6820    2.6840    2.3030 o         1 MOL     -0.585529
      4 H1          0.4000    1.8980    5.4960 hc        1 MOL      0.104995
      5 H2          1.9330    2.0820    4.6120 hc        1 MOL      0.104995
      6 H3          0.9310    3.5110    4.9640 hc        1 MOL      0.104995
      7 N1         -1.0610    1.7020    3.3780 n         1 MOL     -0.464258
      8 C3         -2.0260    1.5700    2.2670 c3        1 MOL      0.202518
      9 C4         -2.6840    2.8870    1.7870 c         1 MOL      0.360207
     10 O2         -3.8740    3.1040    1.9150 o         1 MOL     -0.432305
     11 C5         -3.0810    0.5290    2.7330 c3        1 MOL     -0.301440
     12 C6         -4.1320   -0.0130    1.7510 c         1 MOL      0.613327
     13 O3         -3.8300   -0.0170    0.5320 o         1 MOL     -0.599019
     14 O4         -5.2880   -0.2740    2.1720 o         1 MOL     -0.599019
     15 H4         -1.3770    1.4480    4.3010 hn        1 MOL      0.289454
     16 H5         -1.5270    1.2290    1.3590 h1        1 MOL     -0.008346
     17 H6         -3.5870    0.9590    3.5950 hc        1 MOL      0.079556
     18 H7         -2.6560   -0.3570    3.1900 hc        1 MOL      0.079556
     19 N2         -1.8150    3.6720    1.1620 n         1 MOL     -0.267055
     20 C7         -1.9610    5.0570    0.6530 c3        1 MOL      0.047108
     21 C8         -2.8370    5.2100   -0.5790 c         1 MOL      0.456304
     22 O5         -3.1700    6.2370   -1.0650 o         1 MOL     -0.568433
     23 C9         -0.5320    5.7970    0.6120 c3        1 MOL     -0.190911
     24 C10        -0.1500    6.5930    1.8790 c3        1 MOL      0.073590
     25 C11         1.2210    7.2970    1.6880 c3        1 MOL     -0.060962
     26 C12         1.9270    8.0260    2.8210 c3        1 MOL     -0.039095
     27 N3          2.3610    7.0590    3.9260 n4        1 MOL     -0.351138
     28 H8         -0.8980    3.2610    1.0630 hn        1 MOL      0.264123
     29 H9         -2.5750    5.5780    1.3780 h1        1 MOL      0.072176
     30 H10        -0.4030    6.4630   -0.2300 hc        1 MOL      0.079458
     31 H11         0.1900    4.9960    0.4280 hc        1 MOL      0.079458
     32 H12        -0.1860    5.9400    2.7520 hc        1 MOL      0.004411
     33 H13        -0.9450    7.3250    2.0420 hc        1 MOL      0.004411
     34 H14         1.1060    8.1140    0.9680 hc        1 MOL      0.062749
     35 H15         1.9780    6.6290    1.2930 hc        1 MOL      0.062749
     36 H16         1.2170    8.7460    3.2230 hx        1 MOL      0.104717
     37 H17         2.8120    8.5020    2.3990 hx        1 MOL      0.104717
     38 H18         2.8640    6.2970    3.4780 hn        1 MOL      0.328663
     39 H19         2.8080    7.5240    4.6910 hn        1 MOL      0.328663
     40 H20         1.5490    6.6190    4.3510 hn        1 MOL      0.328663
     41 N4         -3.1710    4.1390   -1.2940 n         1 MOL     -0.152185
     42 C13        -4.1820    4.0650   -2.3380 c3        1 MOL      0.070404
     43 C14        -5.4760    3.3910   -1.8380 c         1 MOL      0.368315
     44 O6         -6.5160    3.5080   -2.4510 o         1 MOL     -0.534157
     45 C15        -3.6770    3.3550   -3.5690 c3        1 MOL     -0.316941
     46 C16        -2.6830    2.2160   -3.3140 c         1 MOL      0.825325
     47 O7         -1.6500    2.1590   -4.0360 o         1 MOL     -0.727606
     48 O8         -2.9450    1.3280   -2.5010 o         1 MOL     -0.727606
     49 H21        -2.6560    3.2960   -1.0840 hn        1 MOL      0.093408
     50 H22        -4.5060    5.0620   -2.6290 h1        1 MOL      0.103560
     51 H23        -3.1380    4.0940   -4.1630 hc        1 MOL      0.075942
     52 H24        -4.5670    3.0460   -4.1100 hc        1 MOL      0.075942
     53 N5         -5.4730    2.8370   -0.6630 n         1 MOL     -0.056274
     54 C17        -6.7390    2.2730   -0.0440 c3        1 MOL     -0.079451
     55 C18        -7.2860    1.0470   -0.6320 c         1 MOL      0.644391
     56 O9         -8.5160    0.9360   -0.7380 o         1 MOL     -0.625973
     57 H25        -4.6850    2.8290   -0.0270 hn        1 MOL      0.020710
     58 H26        -7.5660    2.9810    0.0350 h1        1 MOL      0.056269
     59 H27        -6.4660    1.9280    0.9580 h1        1 MOL      0.056269
     60 N6         -6.4750    0.0670   -0.9440 n         1 MOL     -0.390592
     61 C19        -6.8150   -1.1580   -1.6570 c3        1 MOL      0.079734
     62 C20        -6.8020   -2.4940   -0.8060 c         1 MOL      0.378739
     63 O10        -7.1250   -3.5680   -1.3490 o         1 MOL     -0.548334
     64 C21        -6.0650   -1.2450   -3.0030 c3        1 MOL     -0.335402
     65 C22        -4.5660   -1.5380   -2.6670 c         1 MOL      0.749855
     66 O11        -4.2060   -1.9700   -1.5340 o         1 MOL     -0.700354
     67 O12        -3.7790   -1.3920   -3.6180 o         1 MOL     -0.700354
     68 H28        -5.4870    0.2680   -0.7940 hn        1 MOL      0.217716
     69 H29        -7.8690   -1.1100   -1.9230 h1        1 MOL      0.089099
     70 H30        -6.1910   -0.2730   -3.4860 hc        1 MOL      0.114745
     71 H31        -6.5640   -2.0000   -3.6140 hc        1 MOL      0.114745
     72 N7         -6.5080   -2.3770    0.4860 n         1 MOL     -0.179614
     73 C23        -6.6470   -3.4710    1.4420 c3        1 MOL     -0.146423
     74 C24        -5.4300   -4.3100    1.5990 c         1 MOL      0.515659
     75 O13        -5.4110   -5.2260    2.4390 o         1 MOL     -0.597972
     76 H32        -6.1680   -1.5350    0.9190 hn        1 MOL      0.187829
     77 H33        -7.4490   -4.1190    1.0810 h1        1 MOL      0.099072
     78 H34        -6.9390   -3.0650    2.4160 h1        1 MOL      0.099072
     79 N8         -4.3020   -4.0200    0.9360 n         1 MOL     -0.225026
     80 C25        -2.9500   -4.5920    1.0760 c3        1 MOL     -0.028630
     81 C26        -1.9110   -3.4660    1.1290 c         1 MOL      0.645579
     82 O14        -2.1710   -2.3170    0.7630 o         1 MOL     -0.639415
     83 C27        -2.7100   -5.6160    0.0140 c3        1 MOL      0.306591
     84 C28        -3.7580   -6.7140    0.0950 c3        1 MOL     -0.339403
     85 O15        -2.6880   -5.1080   -1.2440 oh        1 MOL     -0.582028
     86 H35        -4.4880   -3.3540    0.2000 hn        1 MOL      0.205593
     87 H36        -2.9280   -5.1140    2.0300 h1        1 MOL      0.053548
     88 H37        -1.7650   -6.1100    0.2230 h1        1 MOL      0.021493
     89 H38        -3.6110   -5.1300   -1.5030 ho        1 MOL      0.406053
     90 H39        -3.7390   -7.1800    1.0760 hc        1 MOL      0.090130
     91 H40        -4.7450   -6.4120   -0.2550 hc        1 MOL      0.090130
     92 H41        -3.5310   -7.5070   -0.6120 hc        1 MOL      0.090130
     93 N9         -0.6990   -3.8770    1.5940 n         1 MOL     -0.494731
     94 C29         0.5200   -3.0540    1.7740 c3        1 MOL     -0.024370
     95 C30         1.6880   -3.6130    0.9790 c         1 MOL      0.565315
     96 O16         1.9960   -4.7630    1.1610 o         1 MOL     -0.557287
     97 C31         0.8520   -2.8940    3.3220 c3        1 MOL      0.200186
     98 C32        -0.2670   -2.1920    4.0250 c3        1 MOL      0.110637
     99 C33         2.1260   -2.1630    3.5280 c3        1 MOL     -0.215756
    100 C34        -0.3220   -2.4490    5.5080 c3        1 MOL     -0.338942
    101 H42        -0.7520   -4.7820    2.0380 hn        1 MOL      0.255662
    102 H43         0.3240   -2.0560    1.3850 h1        1 MOL      0.063568
    103 H44         0.9760   -3.8660    3.7960 hc        1 MOL     -0.006335
    104 H45        -1.2290   -2.6010    3.7310 hc        1 MOL      0.013740
    105 H46        -0.3380   -1.1390    3.7290 hc        1 MOL      0.013740
    106 H47         2.2970   -2.0850    4.6030 hc        1 MOL      0.024926
    107 H48         2.9090   -2.7980    3.1150 hc        1 MOL      0.024926
    108 H49         2.1380   -1.2050    3.0170 hc        1 MOL      0.024926
    109 H50        -1.1660   -1.9300    5.9630 hc        1 MOL      0.077917
    110 H51        -0.5410   -3.5070    5.6600 hc        1 MOL      0.077917
    111 H52         0.6130   -2.2860    6.0300 hc        1 MOL      0.077917
    112 N10         2.3040   -2.8780   -0.0300 n         1 MOL     -0.165271
    113 C35         3.3890   -3.3520   -0.8750 c3        1 MOL     -0.053655
    114 C36         4.6740   -3.0950   -0.1150 c         1 MOL      0.281456
    115 O17         4.7520   -2.2600    0.8220 o         1 MOL     -0.335398
    116 C37         3.4200   -2.5540   -2.1870 c3        1 MOL      0.012481
    117 C38         2.0530   -2.6230   -2.9030 c3        1 MOL     -0.279522
    118 O18         3.7170   -1.2100   -1.8540 oh        1 MOL     -0.206234
    119 H53         1.9350   -1.9840   -0.3140 hn        1 MOL      0.156559
    120 H54         3.1710   -4.4070   -1.0520 h1        1 MOL      0.095061
    121 H55         4.2370   -2.9310   -2.8000 h1        1 MOL      0.038853
    122 H56         3.3760   -0.6730   -2.5790 ho        1 MOL      0.338019
    123 H57         1.3170   -2.1660   -2.2410 hc        1 MOL      0.089133
    124 H58         2.0660   -2.0320   -3.8180 hc        1 MOL      0.089133
    125 H59         1.7780   -3.6520   -3.1410 hc        1 MOL      0.089133
    126 N11         5.7270   -3.6420   -0.5910 n         1 MOL     -0.188352
    127 C39         7.0580   -3.2970   -0.1430 c3        1 MOL     -0.176281
    128 C40         7.3010   -1.7360   -0.2640 c         1 MOL      0.511859
    129 O19         7.9760   -1.1510    0.5580 o         1 MOL     -0.504287
    130 C41         8.2140   -3.9770   -0.8450 c3        1 MOL      0.374116
    131 C42         8.4020   -5.4600   -0.4810 c3        1 MOL     -0.319723
    132 O20         8.1950   -3.8180   -2.2550 oh        1 MOL     -0.645815
    133 H60         5.6790   -4.3820   -1.2750 hn        1 MOL      0.270434
    134 H61         7.2120   -3.4950    0.9240 h1        1 MOL      0.114548
    135 H62         9.0940   -3.4480   -0.4710 h1        1 MOL      0.013928
    136 H63         9.0310   -4.1840   -2.5650 ho        1 MOL      0.409455
    137 H64         7.5690   -6.0340   -0.8820 hc        1 MOL      0.086061
    138 H65         9.3320   -5.7840   -0.9570 hc        1 MOL      0.086061
    139 H66         8.5570   -5.6070    0.5820 hc        1 MOL      0.086061
    140 N12         6.7080   -1.0870   -1.3030 n         1 MOL     -0.377635
    141 C43         6.7490    0.3300   -1.5360 c3        1 MOL     -0.063292
    142 C44         5.9900    1.1590   -0.4760 c         1 MOL      0.371713
    143 O21         6.5310    2.2270   -0.1010 o         1 MOL     -0.547043
    144 C45         6.2570    0.6170   -3.0110 c3        1 MOL     -0.086280
    145 C46         6.0570    2.0220   -3.4480 c3        1 MOL     -0.041083
    146 C47         7.2710    2.9590   -3.2750 c3        1 MOL      0.125880
    147 C48         7.0600    4.2060   -4.1190 c3        1 MOL     -0.043169
    148 N13         5.8290    4.8800   -3.8610 n4        1 MOL     -0.235898
    149 H67         6.0950   -1.6570   -1.8730 hn        1 MOL      0.226484
    150 H68         7.8010    0.6090   -1.4760 h1        1 MOL      0.130746
    151 H69         5.3060    0.0950   -3.1040 hc        1 MOL      0.050092
    152 H70         6.8890    0.0460   -3.6940 hc        1 MOL      0.050092
    153 H71         5.2510    2.4660   -2.8630 hc        1 MOL      0.007949
    154 H72         5.8090    1.9120   -4.5050 hc        1 MOL      0.007949
    155 H73         8.1670    2.5120   -3.7150 hc        1 MOL      0.009713
    156 H74         7.5860    3.0530   -2.2310 hc        1 MOL      0.009713
    157 H75         7.0910    3.8920   -5.1570 hx        1 MOL      0.083934
    158 H76         7.9000    4.8810   -3.9820 hx        1 MOL      0.083934
    159 H77         5.6730    5.6810   -4.4490 hn        1 MOL      0.281726
    160 H78         5.0390    4.2990   -4.0760 hn        1 MOL      0.281726
    161 H79         5.8100    5.1130   -2.8810 hn        1 MOL      0.281726
    162 N14         4.8850    0.7510    0.0170 n         1 MOL      0.039754
    163 C49         4.0970    1.5070    1.0160 c3        1 MOL     -0.218320
    164 C50         4.7740    1.4660    2.3840 c         1 MOL      0.449237
    165 O22         4.7820    2.4680    3.1200 o         1 MOL     -0.558581
    166 C51         2.7430    0.8580    1.0050 c3        1 MOL      0.251043
    167 C52         1.9430    1.3060   -0.2030 c3        1 MOL     -0.165894
    168 C53         0.5830    0.7150   -0.4330 c         1 MOL      0.692312
    169 O23        -0.3720    1.4220   -0.6950 o         1 MOL     -0.672175
    170 O24         0.4180   -0.4910   -0.3020 o         1 MOL     -0.672175
    171 H80         4.5660   -0.1520   -0.2830 hn        1 MOL     -0.038437
    172 H81         4.0320    2.5940    0.9320 h1        1 MOL      0.094152
    173 H82         2.3890    1.1340    1.9890 hc        1 MOL     -0.019785
    174 H83         2.8620   -0.2160    0.8620 hc        1 MOL     -0.019785
    175 H84         2.5710    0.9570   -1.0240 hc        1 MOL     -0.009598
    176 H85         1.9440    2.3850   -0.3210 hc        1 MOL     -0.009598
    177 N15         5.3330    0.2870    2.7110 n         1 MOL     -0.032514
    178 C54         6.0290    0.0810    3.9430 c3        1 MOL     -0.312326
    179 H86         5.3120    0.0540    4.7640 h1        1 MOL      0.112826
    180 H87         6.5700   -0.8650    3.9020 h1        1 MOL      0.112826
    181 H88         6.7340    0.8970    4.1040 h1        1 MOL      0.112826
    182 H89         5.2030   -0.5440    2.1520 hn        1 MOL      0.139956
    183 Ca1        -1.9570   -0.6090   -1.1440 Ca        1 MOL      1.708337
    184 O25        -0.5340   -0.1670   -3.6500 oh        1 MOL     -0.842917
    185 H90        -0.9530    0.6460   -3.9280 ho        1 MOL      0.392721
    186 H91        -0.7050   -0.7900   -4.3580 ho        1 MOL      0.392721
    187 O26        -1.1740   -3.0590   -2.3590 oh        1 MOL     -0.842917
    188 H92        -1.7700   -3.7840   -2.1940 ho        1 MOL      0.392721
    189 H93        -0.8270   -3.2290   -3.2370 ho        1 MOL      0.392721
@<TRIPOS>BOND
     1    1    2 1   
     2    1    4 1   
     3    1    5 1   
     4    1    6 1   
     5    2    3 2   
     6    2    7 1   
     7    7    8 1   
     8    7   15 1   
     9    8    9 1   
    10    8   11 1   
    11    8   16 1   
    12    9   10 2   
    13    9   19 1   
    14   11   12 1   
    15   11   17 1   
    16   11   18 1   
    17   12   13 1   
    18   12   14 1   
    19   19   20 1   
    20   19   28 1   
    21   20   21 1   
    22   20   23 1   
    23   20   29 1   
    24   21   22 2   
    25   21   41 1   
    26   23   24 1   
    27   23   30 1   
    28   23   31 1   
    29   24   25 1   
    30   24   32 1   
    31   24   33 1   
    32   25   26 1   
    33   25   34 1   
    34   25   35 1   
    35   26   27 1   
    36   26   36 1   
    37   26   37 1   
    38   27   38 1   
    39   27   39 1   
    40   27   40 1   
    41   41   42 1   
    42   41   49 1   
    43   42   43 1   
    44   42   45 1   
    45   42   50 1   
    46   43   44 2   
    47   43   53 1   
    48   45   46 1   
    49   45   51 1   
    50   45   52 1   
    51   46   47 1   
    52   46   48 1   
    53   53   54 1   
    54   53   57 1   
    55   54   55 1   
    56   54   58 1   
    57   54   59 1   
    58   55   56 2   
    59   55   60 1   
    60   60   61 1   
    61   60   68 1   
    62   61   62 1   
    63   61   64 1   
    64   61   69 1   
    65   62   63 2   
    66   62   72 1   
    67   64   65 1   
    68   64   70 1   
    69   64   71 1   
    70   65   66 1   
    71   65   67 1   
    72   72   73 1   
    73   72   76 1   
    74   73   74 1   
    75   73   77 1   
    76   73   78 1   
    77   74   75 2   
    78   74   79 1   
    79   79   80 1   
    80   79   86 1   
    81   80   81 1   
    82   80   83 1   
    83   80   87 1   
    84   81   82 2   
    85   81   93 1   
    86   83   84 1   
    87   83   85 1   
    88   83   88 1   
    89   84   90 1   
    90   84   91 1   
    91   84   92 1   
    92   85   89 1   
    93   93   94 1   
    94   93  101 1   
    95   94   95 1   
    96   94   97 1   
    97   94  102 1   
    98   95   96 2   
    99   95  112 1   
   100   97   98 1   
   101   97   99 1   
   102   97  103 1   
   103   98  100 1   
   104   98  104 1   
   105   98  105 1   
   106   99  106 1   
   107   99  107 1   
   108   99  108 1   
   109  100  109 1   
   110  100  110 1   
   111  100  111 1   
   112  112  113 1   
   113  112  119 1   
   114  113  114 1   
   115  113  116 1   
   116  113  120 1   
   117  114  115 2   
   118  114  126 1   
   119  116  117 1   
   120  116  118 1   
   121  116  121 1   
   122  117  123 1   
   123  117  124 1   
   124  117  125 1   
   125  118  122 1   
   126  126  127 1   
   127  126  133 1   
   128  127  128 1   
   129  127  130 1   
   130  127  134 1   
   131  128  129 2   
   132  128  140 1   
   133  130  131 1   
   134  130  132 1   
   135  130  135 1   
   136  131  137 1   
   137  131  138 1   
   138  131  139 1   
   139  132  136 1   
   140  140  141 1   
   141  140  149 1   
   142  141  142 1   
   143  141  144 1   
   144  141  150 1   
   145  142  143 2   
   146  142  162 1   
   147  144  145 1   
   148  144  151 1   
   149  144  152 1   
   150  145  146 1   
   151  145  153 1   
   152  145  154 1   
   153  146  147 1   
   154  146  155 1   
   155  146  156 1   
   156  147  148 1   
   157  147  157 1   
   158  147  158 1   
   159  148  159 1   
   160  148  160 1   
   161  148  161 1   
   162  162  163 1   
   163  162  171 1   
   164  163  164 1   
   165  163  166 1   
   166  163  172 1   
   167  164  165 2   
   168  164  177 1   
   169  166  167 1   
   170  166  173 1   
   171  166  174 1   
   172  167  168 1   
   173  167  175 1   
   174  167  176 1   
   175  168  169 1   
   176  168  170 1   
   177  177  178 1   
   178  177  182 1   
   179  178  179 1   
   180  178  180 1   
   181  178  181 1   
   182  184  185 1   
   183  184  186 1   
   184  187  188 1   
   185  187  189 1   
@<TRIPOS>SUBSTRUCTURE
     1 MOL         1 TEMP              0 ****  ****    0 ROOT
