@<TRIPOS>MOLECULE
MOL
  189   185     1     0     0
SMALL
resp


@<TRIPOS>ATOM
      1 C1         -0.0690    0.6680    6.3730 c3        1 MOL     -0.434279
      2 C2         -0.5060    1.0350    4.9820 c         1 MOL      0.773464
      3 O1          0.1410    1.8320    4.3800 o         1 MOL     -0.598276
      4 H1         -0.9000    0.2050    6.9050 hc        1 MOL      0.101117
      5 H2          0.7630   -0.0340    6.3190 hc        1 MOL      0.101117
      6 H3          0.2470    1.5660    6.9040 hc        1 MOL      0.101117
      7 N1         -1.6570    0.5410    4.5980 n         1 MOL     -0.532826
      8 C3         -2.2510    0.7870    3.2360 c3        1 MOL     -0.001648
      9 C4         -2.6510    2.2530    3.0940 c         1 MOL      0.454257
     10 O2         -3.4710    2.8250    3.7830 o         1 MOL     -0.520920
     11 C5         -3.4180   -0.1030    2.9370 c3        1 MOL     -0.171258
     12 C6         -4.0930   -0.0660    1.5500 c         1 MOL      0.759936
     13 O3         -5.1250   -0.7460    1.4590 o         1 MOL     -0.685281
     14 O4         -3.5640    0.5130    0.6260 o         1 MOL     -0.685281
     15 H4         -2.2790   -0.0380    5.1450 hn        1 MOL      0.322089
     16 H5         -1.4680    0.5110    2.5250 h1        1 MOL      0.089628
     17 H6         -4.1760    0.0860    3.7040 hc        1 MOL      0.045317
     18 H7         -3.1360   -1.1180    3.2150 hc        1 MOL      0.045317
     19 N2         -1.9820    2.8630    2.1160 n         1 MOL     -0.048910
     20 C7         -2.0580    4.3810    1.9440 c3        1 MOL     -0.139445
     21 C8         -3.3000    4.7610    1.2400 c         1 MOL      0.463979
     22 O5         -4.0710    5.5320    1.7900 o         1 MOL     -0.559293
     23 C9         -0.7040    4.6890    1.2340 c3        1 MOL      0.053507
     24 C10        -0.5850    6.1840    0.7960 c3        1 MOL     -0.123078
     25 C11         0.8620    6.2910    0.2860 c3        1 MOL     -0.008319
     26 C12         1.2670    7.5620   -0.4410 c3        1 MOL     -0.183605
     27 N3          0.5900    7.7520   -1.7520 n4        1 MOL     -0.237898
     28 H8         -1.3560    2.3120    1.5400 hn        1 MOL      0.014096
     29 H9         -2.2160    4.8180    2.9290 h1        1 MOL      0.102333
     30 H10        -0.7090    4.1040    0.3140 hc        1 MOL      0.046224
     31 H11         0.0640    4.2950    1.9130 hc        1 MOL      0.046224
     32 H12        -0.6450    6.8230    1.6740 hc        1 MOL      0.047514
     33 H13        -1.3010    6.4270    0.0110 hc        1 MOL      0.047514
     34 H14         1.0790    5.4410   -0.3520 hc        1 MOL      0.065410
     35 H15         1.4850    6.1700    1.1720 hc        1 MOL      0.065410
     36 H16         2.3570    7.5870   -0.4910 hx        1 MOL      0.136146
     37 H17         0.8900    8.3700    0.1890 hx        1 MOL      0.136146
     38 H18         0.4430    6.9370   -2.3360 hn        1 MOL      0.302030
     39 H19        -0.2930    8.2230   -1.6380 hn        1 MOL      0.302030
     40 H20         1.1030    8.3960   -2.3400 hn        1 MOL      0.302030
     41 N4         -3.4730    4.1980    0.1300 n         1 MOL     -0.296414
     42 C13        -4.4660    4.5040   -0.8180 c3        1 MOL      0.144983
     43 C14        -5.7500    3.6770   -0.6310 c         1 MOL      0.381789
     44 O6         -6.7610    4.2000   -1.1680 o         1 MOL     -0.547069
     45 C15        -3.9480    4.4900   -2.2780 c3        1 MOL     -0.274493
     46 C16        -3.2090    3.2320   -2.7580 c         1 MOL      0.783671
     47 O7         -3.0020    2.2930   -1.9710 o         1 MOL     -0.702252
     48 O8         -2.7480    3.2720   -3.9150 o         1 MOL     -0.702252
     49 H21        -2.9040    3.4150   -0.1500 hn        1 MOL      0.197389
     50 H22        -4.8330    5.5330   -0.7390 h1        1 MOL      0.047453
     51 H23        -3.2610    5.3280   -2.3860 hc        1 MOL      0.055521
     52 H24        -4.7940    4.7430   -2.9100 hc        1 MOL      0.055521
     53 N5         -5.7600    2.5860    0.0480 n         1 MOL     -0.067193
     54 C17        -7.0110    1.7920    0.2620 c3        1 MOL     -0.284654
     55 C18        -7.2480    1.0220   -1.0460 c         1 MOL      0.708146
     56 O9         -8.0830    1.3760   -1.8430 o         1 MOL     -0.556967
     57 H25        -4.8900    2.2320    0.4300 hn        1 MOL      0.181965
     58 H26        -7.8290    2.4860    0.4840 h1        1 MOL      0.120483
     59 H27        -6.9560    1.1650    1.1500 h1        1 MOL      0.120483
     60 N6         -6.6760   -0.1650   -1.0590 n         1 MOL     -0.360319
     61 C19        -7.0660   -1.2290   -1.9900 c3        1 MOL     -0.002633
     62 C20        -7.1400   -2.5920   -1.2970 c         1 MOL      0.446921
     63 O10        -7.5750   -3.5710   -1.9400 o         1 MOL     -0.525411
     64 C21        -6.0400   -1.1500   -3.1980 c3        1 MOL     -0.207532
     65 C22        -4.5580   -1.0280   -2.8030 c         1 MOL      0.736131
     66 O11        -4.0550   -1.7090   -1.8290 o         1 MOL     -0.720987
     67 O12        -3.7090   -0.2950   -3.3840 o         1 MOL     -0.720987
     68 H28        -5.9280   -0.3080   -0.3890 hn        1 MOL      0.018378
     69 H29        -8.0850   -1.0210   -2.3270 h1        1 MOL      0.111664
     70 H30        -6.2620   -0.2470   -3.7770 hc        1 MOL      0.081070
     71 H31        -6.2060   -1.9500   -3.9210 hc        1 MOL      0.081070
     72 N7         -6.6930   -2.7140   -0.0370 n         1 MOL     -0.291000
     73 C23        -6.5560   -4.0320    0.6350 c3        1 MOL     -0.127968
     74 C24        -5.2780   -4.8120    0.3090 c         1 MOL      0.530746
     75 O13        -5.2650   -6.0580    0.5060 o         1 MOL     -0.570527
     76 H32        -6.4950   -1.9210    0.5640 hn        1 MOL      0.301120
     77 H33        -7.4340   -4.6410    0.4260 h1        1 MOL      0.090180
     78 H34        -6.5400   -3.8230    1.7050 h1        1 MOL      0.090180
     79 N8         -4.2440   -4.1270   -0.1880 n         1 MOL     -0.293671
     80 C25        -2.8540   -4.6360   -0.4670 c3        1 MOL     -0.146578
     81 C26        -1.8090   -3.6370    0.0820 c         1 MOL      0.680213
     82 O14        -2.0730   -2.4250    0.2230 o         1 MOL     -0.683119
     83 C27        -2.6090   -5.0980   -1.9120 c3        1 MOL      0.438236
     84 C28        -3.5350   -6.2140   -2.4100 c3        1 MOL     -0.301220
     85 O15        -2.7060   -3.9420   -2.8040 oh        1 MOL     -0.644302
     86 H35        -4.3880   -3.1320   -0.2140 hn        1 MOL      0.297684
     87 H36        -2.7220   -5.5510    0.1100 h1        1 MOL      0.073124
     88 H37        -1.5980   -5.5010   -1.8320 h1        1 MOL     -0.007539
     89 H38        -3.4540   -3.3820   -2.5720 ho        1 MOL      0.397409
     90 H39        -3.9540   -6.7070   -1.5320 hc        1 MOL      0.079744
     91 H40        -4.2920   -5.8790   -3.1190 hc        1 MOL      0.079744
     92 H41        -2.9360   -6.9550   -2.9360 hc        1 MOL      0.079744
     93 N9         -0.6720   -4.1390    0.6240 n         1 MOL     -0.563432
     94 C29         0.5040   -3.3480    1.1290 c3        1 MOL      0.202755
     95 C30         1.6490   -3.5890    0.2030 c         1 MOL      0.324233
     96 O16         2.0720   -4.7620    0.1820 o         1 MOL     -0.553288
     97 C31         0.9210   -3.6360    2.6450 c3        1 MOL      0.124135
     98 C32        -0.2540   -3.6690    3.6560 c3        1 MOL      0.271815
     99 C33         1.9920   -2.5440    2.9870 c3        1 MOL     -0.123340
    100 C34         0.1890   -4.3940    4.9570 c3        1 MOL     -0.363566
    101 H42        -0.5280   -5.1370    0.5890 hn        1 MOL      0.295902
    102 H43         0.1180   -2.3290    1.1350 h1        1 MOL      0.073302
    103 H44         1.3200   -4.6440    2.6610 hc        1 MOL     -0.014287
    104 H45        -0.9700   -4.3210    3.1570 hc        1 MOL     -0.065718
    105 H46        -0.7460   -2.7110    3.8640 hc        1 MOL     -0.065718
    106 H47         2.8930   -2.6730    2.3830 hc        1 MOL     -0.000128
    107 H48         1.5510   -1.5510    2.9580 hc        1 MOL     -0.000128
    108 H49         2.3380   -2.6960    4.0080 hc        1 MOL     -0.000128
    109 H50        -0.7430   -4.5910    5.4860 hc        1 MOL      0.080530
    110 H51         0.6050   -5.3730    4.7240 hc        1 MOL      0.080530
    111 H52         0.8550   -3.7510    5.5350 hc        1 MOL      0.080530
    112 N10         2.1690   -2.6150   -0.5120 n         1 MOL     -0.035692
    113 C35         3.4490   -2.6420   -1.2590 c3        1 MOL     -0.229320
    114 C36         4.6470   -2.3920   -0.3470 c         1 MOL      0.592810
    115 O17         4.4920   -1.9090    0.7470 o         1 MOL     -0.392945
    116 C37         3.4170   -1.6810   -2.4670 c3        1 MOL      0.408091
    117 C38         2.4570   -2.1020   -3.5670 c3        1 MOL     -0.441288
    118 O18         3.0260   -0.4160   -2.0440 oh        1 MOL     -0.586826
    119 H53         1.5550   -1.8200   -0.6160 hn        1 MOL      0.088316
    120 H54         3.5710   -3.6850   -1.5550 h1        1 MOL      0.094280
    121 H55         4.4010   -1.5600   -2.9070 h1        1 MOL     -0.017296
    122 H56         2.1010   -0.4060   -1.8040 ho        1 MOL      0.360959
    123 H57         2.6150   -3.1330   -3.8720 hc        1 MOL      0.114655
    124 H58         1.4460   -1.9680   -3.1960 hc        1 MOL      0.114655
    125 H59         2.6880   -1.4210   -4.3840 hc        1 MOL      0.114655
    126 N11         5.8030   -2.8280   -0.8390 n         1 MOL     -0.432633
    127 C39         7.0680   -2.5790   -0.1100 c3        1 MOL     -0.168317
    128 C40         7.3140   -1.1460    0.2440 c         1 MOL      0.356747
    129 O19         7.7220   -0.8980    1.3830 o         1 MOL     -0.435649
    130 C41         8.2370   -3.1620   -0.9200 c3        1 MOL      0.445010
    131 C42         9.5060   -3.0050   -0.1560 c3        1 MOL     -0.140058
    132 O20         8.0230   -4.5360   -1.2340 oh        1 MOL     -0.563671
    133 H60         5.8230   -3.3660   -1.6900 hn        1 MOL      0.228781
    134 H61         6.8380   -3.1770    0.7720 h1        1 MOL      0.158127
    135 H62         8.4210   -2.5130   -1.7740 h1        1 MOL     -0.102872
    136 H63         7.3870   -4.4850   -1.9590 ho        1 MOL      0.369874
    137 H64         9.4240   -3.1040    0.9220 hc        1 MOL      0.047921
    138 H65        10.1810   -3.7320   -0.6090 hc        1 MOL      0.047921
    139 H66         9.9810   -2.0370   -0.2950 hc        1 MOL      0.047921
    140 N12         7.0710   -0.1700   -0.6480 n         1 MOL     -0.247404
    141 C43         7.3040    1.2250   -0.3220 c3        1 MOL     -0.255650
    142 C44         6.2810    1.6590    0.7390 c         1 MOL      0.493358
    143 O21         6.6210    2.4950    1.6010 o         1 MOL     -0.493163
    144 C45         7.0980    2.1410   -1.5280 c3        1 MOL     -0.092259
    145 C46         8.1660    2.0710   -2.6480 c3        1 MOL      0.206834
    146 C47         8.1540    3.1580   -3.7430 c3        1 MOL     -0.138076
    147 C48         9.1050    2.6140   -4.8120 c3        1 MOL      0.112295
    148 N13        10.5170    2.3030   -4.3790 n4        1 MOL     -0.238623
    149 H67         6.9070   -0.4120   -1.6130 hn        1 MOL      0.240709
    150 H68         8.3030    1.3780    0.0760 h1        1 MOL      0.165044
    151 H69         6.9540    3.1700   -1.2040 hc        1 MOL      0.066027
    152 H70         6.1480    1.8860   -1.9920 hc        1 MOL      0.066027
    153 H71         7.9890    1.1350   -3.1610 hc        1 MOL     -0.042002
    154 H72         9.1300    2.0460   -2.1390 hc        1 MOL     -0.042002
    155 H73         8.5320    4.0530   -3.2560 hc        1 MOL      0.072163
    156 H74         7.1430    3.2450   -4.1200 hc        1 MOL      0.072163
    157 H75         9.1650    3.3300   -5.6350 hx        1 MOL      0.050663
    158 H76         8.7500    1.6510   -5.1790 hx        1 MOL      0.050663
    159 H77        10.8940    3.0650   -3.8330 hn        1 MOL      0.269882
    160 H78        10.5280    1.4170   -3.8890 hn        1 MOL      0.269882
    161 H79        11.0030    2.0630   -5.2280 hn        1 MOL      0.269882
    162 N14         5.0360    1.0850    0.7560 n         1 MOL     -0.308779
    163 C49         3.9900    1.4160    1.8190 c3        1 MOL     -0.084824
    164 C50         4.3990    1.0400    3.2590 c         1 MOL      0.444710
    165 O22         4.3550    1.8880    4.1820 o         1 MOL     -0.513152
    166 C51         2.5820    0.7900    1.5830 c3        1 MOL     -0.020298
    167 C52         1.8600    1.4120    0.3750 c3        1 MOL      0.375848
    168 C53         0.5690    0.7130    0.0980 c         1 MOL      0.513245
    169 O23        -0.5260    1.2740    0.3370 o         1 MOL     -0.623030
    170 O24         0.5800   -0.3820   -0.5630 o         1 MOL     -0.623030
    171 H80         4.8490    0.4150    0.0240 hn        1 MOL      0.174763
    172 H81         3.8690    2.4950    1.8980 h1        1 MOL      0.078834
    173 H82         1.9600    1.0740    2.4280 hc        1 MOL      0.028709
    174 H83         2.5990   -0.2800    1.3740 hc        1 MOL      0.028709
    175 H84         2.4650    1.4670   -0.5240 hc        1 MOL     -0.122595
    176 H85         1.6740    2.4830    0.5240 hc        1 MOL     -0.122595
    177 N15         4.8180   -0.2310    3.3530 n         1 MOL     -0.075303
    178 C54         5.2610   -0.8010    4.6290 c3        1 MOL     -0.243463
    179 H86         4.4040   -0.9120    5.2930 h1        1 MOL      0.098871
    180 H87         5.7130   -1.7770    4.4530 h1        1 MOL      0.098871
    181 H88         5.9930   -0.1380    5.0890 h1        1 MOL      0.098871
    182 H89         4.7770   -0.8300    2.5420 hn        1 MOL      0.165087
    183 Ca1        -2.1120   -0.1560   -1.3330 Ca        1 MOL      1.755088
    184 O25        -0.9670   -2.0660   -3.0150 oh        1 MOL     -0.885539
    185 H90        -0.5420   -1.9510   -3.8650 ho        1 MOL      0.398166
    186 H91        -1.5050   -2.8530   -3.1200 ho        1 MOL      0.398166
    187 O26        -0.8410    1.4550   -3.3760 oh        1 MOL     -0.885539
    188 H92        -0.7510    1.0750   -4.2510 ho        1 MOL      0.398166
    189 H93        -1.5590    2.0830   -3.4580 ho        1 MOL      0.398166
@<TRIPOS>BOND
     1    1    2 1   
     2    1    4 1   
     3    1    5 1   
     4    1    6 1   
     5    2    3 2   
     6    2    7 1   
     7    7    8 1   
     8    7   15 1   
     9    8    9 1   
    10    8   11 1   
    11    8   16 1   
    12    9   10 2   
    13    9   19 1   
    14   11   12 1   
    15   11   17 1   
    16   11   18 1   
    17   12   13 1   
    18   12   14 1   
    19   19   20 1   
    20   19   28 1   
    21   20   21 1   
    22   20   23 1   
    23   20   29 1   
    24   21   22 2   
    25   21   41 1   
    26   23   24 1   
    27   23   30 1   
    28   23   31 1   
    29   24   25 1   
    30   24   32 1   
    31   24   33 1   
    32   25   26 1   
    33   25   34 1   
    34   25   35 1   
    35   26   27 1   
    36   26   36 1   
    37   26   37 1   
    38   27   38 1   
    39   27   39 1   
    40   27   40 1   
    41   41   42 1   
    42   41   49 1   
    43   42   43 1   
    44   42   45 1   
    45   42   50 1   
    46   43   44 2   
    47   43   53 1   
    48   45   46 1   
    49   45   51 1   
    50   45   52 1   
    51   46   47 1   
    52   46   48 1   
    53   53   54 1   
    54   53   57 1   
    55   54   55 1   
    56   54   58 1   
    57   54   59 1   
    58   55   56 2   
    59   55   60 1   
    60   60   61 1   
    61   60   68 1   
    62   61   62 1   
    63   61   64 1   
    64   61   69 1   
    65   62   63 2   
    66   62   72 1   
    67   64   65 1   
    68   64   70 1   
    69   64   71 1   
    70   65   66 1   
    71   65   67 1   
    72   72   73 1   
    73   72   76 1   
    74   73   74 1   
    75   73   77 1   
    76   73   78 1   
    77   74   75 2   
    78   74   79 1   
    79   79   80 1   
    80   79   86 1   
    81   80   81 1   
    82   80   83 1   
    83   80   87 1   
    84   81   82 2   
    85   81   93 1   
    86   83   84 1   
    87   83   85 1   
    88   83   88 1   
    89   84   90 1   
    90   84   91 1   
    91   84   92 1   
    92   85   89 1   
    93   93   94 1   
    94   93  101 1   
    95   94   95 1   
    96   94   97 1   
    97   94  102 1   
    98   95   96 2   
    99   95  112 1   
   100   97   98 1   
   101   97   99 1   
   102   97  103 1   
   103   98  100 1   
   104   98  104 1   
   105   98  105 1   
   106   99  106 1   
   107   99  107 1   
   108   99  108 1   
   109  100  109 1   
   110  100  110 1   
   111  100  111 1   
   112  112  113 1   
   113  112  119 1   
   114  113  114 1   
   115  113  116 1   
   116  113  120 1   
   117  114  115 2   
   118  114  126 1   
   119  116  117 1   
   120  116  118 1   
   121  116  121 1   
   122  117  123 1   
   123  117  124 1   
   124  117  125 1   
   125  118  122 1   
   126  126  127 1   
   127  126  133 1   
   128  127  128 1   
   129  127  130 1   
   130  127  134 1   
   131  128  129 2   
   132  128  140 1   
   133  130  131 1   
   134  130  132 1   
   135  130  135 1   
   136  131  137 1   
   137  131  138 1   
   138  131  139 1   
   139  132  136 1   
   140  140  141 1   
   141  140  149 1   
   142  141  142 1   
   143  141  144 1   
   144  141  150 1   
   145  142  143 2   
   146  142  162 1   
   147  144  145 1   
   148  144  151 1   
   149  144  152 1   
   150  145  146 1   
   151  145  153 1   
   152  145  154 1   
   153  146  147 1   
   154  146  155 1   
   155  146  156 1   
   156  147  148 1   
   157  147  157 1   
   158  147  158 1   
   159  148  159 1   
   160  148  160 1   
   161  148  161 1   
   162  162  163 1   
   163  162  171 1   
   164  163  164 1   
   165  163  166 1   
   166  163  172 1   
   167  164  165 2   
   168  164  177 1   
   169  166  167 1   
   170  166  173 1   
   171  166  174 1   
   172  167  168 1   
   173  167  175 1   
   174  167  176 1   
   175  168  169 1   
   176  168  170 1   
   177  177  178 1   
   178  177  182 1   
   179  178  179 1   
   180  178  180 1   
   181  178  181 1   
   182  184  185 1   
   183  184  186 1   
   184  187  188 1   
   185  187  189 1   
@<TRIPOS>SUBSTRUCTURE
     1 MOL         1 TEMP              0 ****  ****    0 ROOT
