@<TRIPOS>MOLECULE
MOL
  189   185     1     0     0
SMALL
resp


@<TRIPOS>ATOM
      1 C1         -0.3050    3.7520   -4.5260 c3        1 MOL     -0.392327
      2 C2          0.2710    3.3120   -3.1990 c         1 MOL      0.653468
      3 O1         -0.1690    3.8040   -2.1340 o         1 MOL     -0.634318
      4 H1         -0.2060    4.8340   -4.6230 hc        1 MOL      0.102191
      5 H2          0.2360    3.2640   -5.3370 hc        1 MOL      0.102191
      6 H3         -1.3580    3.4790   -4.5750 hc        1 MOL      0.102191
      7 N1          1.2110    2.3580   -3.2550 n         1 MOL     -0.485621
      8 C3          2.0010    1.8540   -2.0860 c3        1 MOL      0.019558
      9 C4          2.7920    3.0130   -1.3890 c         1 MOL      0.409370
     10 O2          3.9270    3.3730   -1.7540 o         1 MOL     -0.496484
     11 C5          2.9630    0.8000   -2.5880 c3        1 MOL     -0.196447
     12 C6          3.7090    0.1020   -1.4980 c         1 MOL      0.785226
     13 O3          3.2110    0.1140   -0.3600 o         1 MOL     -0.696122
     14 O4          4.7780   -0.4600   -1.7470 o         1 MOL     -0.696122
     15 H4          1.3810    1.9480   -4.1650 hn        1 MOL      0.330578
     16 H5          1.3560    1.4020   -1.3330 h1        1 MOL      0.073410
     17 H6          3.6550    1.2120   -3.3160 hc        1 MOL      0.049796
     18 H7          2.4520   -0.0020   -3.1270 hc        1 MOL      0.049796
     19 N2          2.1740    3.6450   -0.3930 n         1 MOL     -0.225627
     20 C7          2.6330    4.9230    0.2590 c3        1 MOL      0.009683
     21 C8          3.8000    4.6840    1.1780 c         1 MOL      0.425722
     22 O5          4.6740    5.5460    1.2410 o         1 MOL     -0.564989
     23 C9          1.4840    5.6090    1.0180 c3        1 MOL     -0.243588
     24 C10         0.5140    6.4440    0.1210 c3        1 MOL      0.244942
     25 C11         1.2690    7.2380   -1.0300 c3        1 MOL     -0.069736
     26 C12         0.3900    8.4090   -1.4860 c3        1 MOL     -0.045664
     27 N3         -0.7690    7.9450   -2.3390 n4        1 MOL     -0.314562
     28 H8          1.3160    3.2830   -0.0080 hn        1 MOL      0.357771
     29 H9          3.0440    5.5090   -0.5640 h1        1 MOL      0.054276
     30 H10         1.9460    6.3250    1.6860 hc        1 MOL      0.072930
     31 H11         0.9640    4.8760    1.6460 hc        1 MOL      0.072930
     32 H12        -0.0990    7.1130    0.7360 hc        1 MOL     -0.042069
     33 H13        -0.1780    5.8010   -0.4240 hc        1 MOL     -0.042069
     34 H14         1.5590    6.7060   -1.9330 hc        1 MOL      0.065719
     35 H15         2.1940    7.6330   -0.6120 hc        1 MOL      0.065719
     36 H16         0.8850    9.0800   -2.1760 hx        1 MOL      0.092856
     37 H17         0.1140    9.0490   -0.6490 hx        1 MOL      0.092856
     38 H18        -1.2070    7.1160   -1.9470 hn        1 MOL      0.314725
     39 H19        -1.5080    8.6320   -2.3570 hn        1 MOL      0.314725
     40 H20        -0.5310    7.6940   -3.2910 hn        1 MOL      0.314725
     41 N4          3.8040    3.5940    1.8990 n         1 MOL     -0.149943
     42 C13         4.9020    3.2620    2.8330 c3        1 MOL     -0.046525
     43 C14         6.0250    2.3510    2.2030 c         1 MOL      0.402503
     44 O6          7.0720    2.0620    2.7570 o         1 MOL     -0.512886
     45 C15         4.2910    2.5960    4.0820 c3        1 MOL     -0.059849
     46 C16         3.2200    1.5020    3.8600 c         1 MOL      0.706021
     47 O7          2.9120    1.1150    2.6930 o         1 MOL     -0.674723
     48 O8          2.8270    0.9420    4.8590 o         1 MOL     -0.674723
     49 H21         3.1050    2.9210    1.6270 hn        1 MOL      0.098148
     50 H22         5.3070    4.1900    3.2250 h1        1 MOL      0.098405
     51 H23         3.6490    3.3540    4.5310 hc        1 MOL      0.012342
     52 H24         5.0250    2.3050    4.8290 hc        1 MOL      0.012342
     53 N5          5.7570    1.8470    0.9670 n         1 MOL     -0.015966
     54 C17         6.7970    1.3230    0.1060 c3        1 MOL     -0.332211
     55 C18         7.2390   -0.1060    0.3150 c         1 MOL      0.636831
     56 O9          8.3400   -0.4270   -0.0160 o         1 MOL     -0.592357
     57 H25         4.8290    1.9160    0.5840 hn        1 MOL      0.072714
     58 H26         7.6920    1.9020    0.3410 h1        1 MOL      0.135458
     59 H27         6.6650    1.3810   -0.9810 h1        1 MOL      0.135458
     60 N6          6.3710   -0.9650    0.8840 n         1 MOL     -0.252065
     61 C19         6.5980   -2.3040    1.3270 c3        1 MOL      0.014071
     62 C20         6.4980   -3.2910    0.1720 c         1 MOL      0.437653
     63 O10         6.7190   -4.5010    0.3620 o         1 MOL     -0.539961
     64 C21         5.7730   -2.7850    2.5330 c3        1 MOL     -0.269190
     65 C22         4.1900   -2.5630    2.3120 c         1 MOL      0.698258
     66 O11         3.6290   -2.5040    1.1770 o         1 MOL     -0.655434
     67 O12         3.3990   -2.3800    3.2700 o         1 MOL     -0.655434
     68 H28         5.4150   -0.6600    0.9640 hn        1 MOL      0.110415
     69 H29         7.6580   -2.3350    1.5660 h1        1 MOL      0.103723
     70 H30         6.0480   -2.2380    3.4340 hc        1 MOL      0.098899
     71 H31         5.9230   -3.8540    2.6790 hc        1 MOL      0.098899
     72 N7          6.1290   -2.9220   -1.1250 n         1 MOL     -0.302488
     73 C23         6.0120   -3.8140   -2.2800 c3        1 MOL     -0.133664
     74 C24         4.6450   -4.5300   -2.3270 c         1 MOL      0.483544
     75 O13         4.5510   -5.5310   -3.0640 o         1 MOL     -0.572468
     76 H32         5.6760   -2.0260   -1.0590 hn        1 MOL      0.258804
     77 H33         6.7630   -4.6040   -2.2160 h1        1 MOL      0.112499
     78 H34         6.1870   -3.3160   -3.2300 h1        1 MOL      0.112499
     79 N8          3.6140   -4.0860   -1.6240 n         1 MOL     -0.111009
     80 C25         2.2140   -4.6240   -1.6100 c3        1 MOL     -0.466820
     81 C26         1.1700   -3.5030   -1.6340 c         1 MOL      0.749593
     82 O14         1.2050   -2.6540   -0.7790 o         1 MOL     -0.621472
     83 C27         1.9960   -5.5430   -0.4100 c3        1 MOL      0.424300
     84 C28         2.9130   -6.7480   -0.5560 c3        1 MOL     -0.428589
     85 O15         2.3070   -4.9300    0.8930 oh        1 MOL     -0.582858
     86 H35         3.7860   -3.3470   -0.9540 hn        1 MOL      0.166915
     87 H36         2.0870   -5.1300   -2.5600 h1        1 MOL      0.166780
     88 H37         0.9740   -5.9250   -0.4190 h1        1 MOL      0.014963
     89 H38         2.8610   -4.1600    0.7730 ho        1 MOL      0.390222
     90 H39         3.9270   -6.3680   -0.5780 hc        1 MOL      0.121528
     91 H40         2.7220   -7.4270    0.2750 hc        1 MOL      0.121528
     92 H41         2.6370   -7.2780   -1.4730 hc        1 MOL      0.121528
     93 N9          0.2700   -3.4540   -2.6340 n         1 MOL     -0.625064
     94 C29        -0.8940   -2.5040   -2.6550 c3        1 MOL     -0.026774
     95 C30        -2.1110   -2.9870   -1.8340 c         1 MOL      0.538153
     96 O16        -2.7050   -3.9810   -2.2010 o         1 MOL     -0.578224
     97 C31        -1.2910   -2.0950   -4.1080 c3        1 MOL      0.249445
     98 C32        -0.1690   -1.8770   -5.0940 c3        1 MOL      0.035675
     99 C33        -2.1370   -0.8140   -3.9590 c3        1 MOL     -0.451027
    100 C34        -0.5360   -1.4900   -6.5540 c3        1 MOL     -0.186646
    101 H42         0.3050   -4.1910   -3.3220 hn        1 MOL      0.340409
    102 H43        -0.5650   -1.6030   -2.1390 h1        1 MOL      0.123744
    103 H44        -1.9740   -2.8740   -4.4380 hc        1 MOL     -0.004136
    104 H45         0.3830   -2.8170   -5.0000 hc        1 MOL     -0.000952
    105 H46         0.4660   -1.0400   -4.8080 hc        1 MOL     -0.000952
    106 H47        -2.4550   -0.3680   -4.9010 hc        1 MOL      0.084635
    107 H48        -3.0300   -1.1010   -3.3950 hc        1 MOL      0.084635
    108 H49        -1.6810    0.0310   -3.4310 hc        1 MOL      0.084635
    109 H50        -1.0160   -0.5100   -6.6110 hc        1 MOL      0.049022
    110 H51         0.3430   -1.4210   -7.2030 hc        1 MOL      0.049022
    111 H52        -1.1190   -2.2960   -6.9980 hc        1 MOL      0.049022
    112 N10        -2.6230   -2.2390   -0.8840 n         1 MOL     -0.147120
    113 C35        -3.8340   -2.5520   -0.0650 c3        1 MOL     -0.008179
    114 C36        -5.0710   -2.0150   -0.6880 c         1 MOL      0.342147
    115 O17        -4.9120   -1.0480   -1.4520 o         1 MOL     -0.346155
    116 C37        -3.6480   -2.1070    1.3770 c3        1 MOL      0.016997
    117 C38        -2.4100   -2.6400    2.0460 c3        1 MOL     -0.195484
    118 O18        -3.4710   -0.7310    1.3260 oh        1 MOL     -0.396205
    119 H53        -2.1590   -1.3610   -0.6620 hn        1 MOL      0.175519
    120 H54        -4.0950   -3.6090   -0.0390 h1        1 MOL      0.059727
    121 H55        -4.5470   -2.3580    1.9310 h1        1 MOL      0.061083
    122 H56        -2.5420   -0.5130    1.3960 ho        1 MOL      0.333425
    123 H57        -1.5450   -2.1890    1.5810 hc        1 MOL      0.069352
    124 H58        -2.4250   -2.5310    3.1360 hc        1 MOL      0.069352
    125 H59        -2.2540   -3.7090    1.9100 hc        1 MOL      0.069352
    126 N11        -6.2740   -2.4370   -0.3000 n         1 MOL     -0.191631
    127 C39        -7.4980   -1.7290   -0.7500 c3        1 MOL     -0.208217
    128 C40        -7.4950   -0.2650   -0.1300 c         1 MOL      0.467257
    129 O19        -7.9320    0.6640   -0.7960 o         1 MOL     -0.485349
    130 C41        -8.7980   -2.4950   -0.4150 c3        1 MOL      0.251158
    131 C42        -9.1340   -3.7560   -1.1570 c3        1 MOL     -0.417791
    132 O20        -8.6970   -2.7990    0.9420 oh        1 MOL     -0.635593
    133 H60        -6.4070   -3.3180    0.1760 hn        1 MOL      0.257461
    134 H61        -7.3780   -1.6220   -1.8260 h1        1 MOL      0.157179
    135 H62        -9.6140   -1.7690   -0.4470 h1        1 MOL      0.068499
    136 H63        -9.5010   -3.3320    1.0040 ho        1 MOL      0.411434
    137 H64       -10.1660   -4.0590   -0.9740 hc        1 MOL      0.124361
    138 H65        -8.9810   -3.6490   -2.2350 hc        1 MOL      0.124361
    139 H66        -8.5550   -4.6210   -0.8320 hc        1 MOL      0.124361
    140 N12        -6.8580   -0.0570    1.0660 n         1 MOL     -0.152598
    141 C43        -6.6440    1.2590    1.6610 c3        1 MOL     -0.092705
    142 C44        -5.7670    2.1820    0.7610 c         1 MOL      0.416943
    143 O21        -5.9700    3.4060    0.6900 o         1 MOL     -0.542119
    144 C45        -6.0390    1.1290    3.0710 c3        1 MOL     -0.110897
    145 C46        -6.5940   -0.0490    4.0170 c3        1 MOL      0.095403
    146 C47        -6.0260    0.0230    5.3950 c3        1 MOL     -0.140868
    147 C48        -6.5270   -1.2690    6.1000 c3        1 MOL     -0.008458
    148 N13        -6.0160   -1.3900    7.4720 n4        1 MOL     -0.145421
    149 H67        -6.6850   -0.8810    1.6340 hn        1 MOL      0.141956
    150 H68        -7.6460    1.7040    1.6300 h1        1 MOL      0.099727
    151 H69        -6.3200    2.0450    3.5940 hc        1 MOL      0.061986
    152 H70        -4.9540    1.1540    3.0150 hc        1 MOL      0.061986
    153 H71        -6.2510   -0.9410    3.5090 hc        1 MOL      0.011882
    154 H72        -7.6810   -0.1450    3.9660 hc        1 MOL      0.011882
    155 H73        -6.3150    0.9630    5.8500 hc        1 MOL      0.071267
    156 H74        -4.9660    0.0100    5.1280 hc        1 MOL      0.071267
    157 H75        -6.2420   -2.1610    5.5480 hx        1 MOL      0.091366
    158 H76        -7.6020   -1.1490    6.2790 hx        1 MOL      0.091366
    159 H77        -5.0320   -1.5790    7.3450 hn        1 MOL      0.259177
    160 H78        -6.0420   -0.5100    7.9710 hn        1 MOL      0.259177
    161 H79        -6.4240   -2.0960    8.0610 hn        1 MOL      0.259177
    162 N14        -4.8590    1.5900    0.0030 n         1 MOL      0.054527
    163 C49        -3.9160    2.3410   -0.8030 c3        1 MOL     -0.049608
    164 C50        -4.3470    2.6170   -2.2550 c         1 MOL      0.419984
    165 O22        -3.9310    3.6300   -2.7660 o         1 MOL     -0.569148
    166 C51        -2.5450    1.6230   -0.7040 c3        1 MOL      0.117198
    167 C52        -1.8200    1.9940    0.6000 c3        1 MOL     -0.224275
    168 C53        -0.6400    1.0270    0.7650 c         1 MOL      0.738270
    169 O23        -0.7480   -0.1950    0.5860 o         1 MOL     -0.780509
    170 O24         0.4780    1.4970    0.9920 o         1 MOL     -0.780509
    171 H80        -4.7760    0.5890    0.0930 hn        1 MOL     -0.203962
    172 H81        -3.7870    3.3300   -0.3820 h1        1 MOL      0.085063
    173 H82        -1.8930    1.9650   -1.5110 hc        1 MOL      0.039523
    174 H83        -2.7130    0.5660   -0.8940 hc        1 MOL      0.039523
    175 H84        -2.4410    1.8460    1.4790 hc        1 MOL      0.046655
    176 H85        -1.5310    3.0400    0.5380 hc        1 MOL      0.046655
    177 N15        -5.2710    1.8420   -2.7850 n         1 MOL     -0.084825
    178 C54        -6.0990    2.2440   -3.9210 c3        1 MOL     -0.226736
    179 H86        -6.1310    3.3320   -3.9800 h1        1 MOL      0.097497
    180 H87        -5.6740    1.8440   -4.8400 h1        1 MOL      0.097497
    181 H88        -7.1100    1.8580   -3.7890 h1        1 MOL      0.097497
    182 H89        -5.3230    0.9240   -2.3510 hn        1 MOL      0.138181
    183 Ca1         1.6780   -0.8390    1.4320 Ca        1 MOL      1.751016
    184 O25         0.5490   -0.5420    3.9900 oh        1 MOL     -0.795677
    185 H90        -0.3080   -0.4670    4.4240 ho        1 MOL      0.366651
    186 H91         1.1050    0.0770    4.4620 ho        1 MOL      0.366651
    187 O26         0.7460   -3.2420    2.0840 oh        1 MOL     -0.795677
    188 H92         1.3240   -3.7900    1.5600 ho        1 MOL      0.366651
    189 H93         0.4000   -3.8190    2.7600 ho        1 MOL      0.366651
@<TRIPOS>BOND
     1    1    2 1   
     2    1    4 1   
     3    1    5 1   
     4    1    6 1   
     5    2    3 2   
     6    2    7 1   
     7    7    8 1   
     8    7   15 1   
     9    8    9 1   
    10    8   11 1   
    11    8   16 1   
    12    9   10 2   
    13    9   19 1   
    14   11   12 1   
    15   11   17 1   
    16   11   18 1   
    17   12   13 1   
    18   12   14 1   
    19   19   20 1   
    20   19   28 1   
    21   20   21 1   
    22   20   23 1   
    23   20   29 1   
    24   21   22 2   
    25   21   41 1   
    26   23   24 1   
    27   23   30 1   
    28   23   31 1   
    29   24   25 1   
    30   24   32 1   
    31   24   33 1   
    32   25   26 1   
    33   25   34 1   
    34   25   35 1   
    35   26   27 1   
    36   26   36 1   
    37   26   37 1   
    38   27   38 1   
    39   27   39 1   
    40   27   40 1   
    41   41   42 1   
    42   41   49 1   
    43   42   43 1   
    44   42   45 1   
    45   42   50 1   
    46   43   44 2   
    47   43   53 1   
    48   45   46 1   
    49   45   51 1   
    50   45   52 1   
    51   46   47 1   
    52   46   48 1   
    53   53   54 1   
    54   53   57 1   
    55   54   55 1   
    56   54   58 1   
    57   54   59 1   
    58   55   56 2   
    59   55   60 1   
    60   60   61 1   
    61   60   68 1   
    62   61   62 1   
    63   61   64 1   
    64   61   69 1   
    65   62   63 2   
    66   62   72 1   
    67   64   65 1   
    68   64   70 1   
    69   64   71 1   
    70   65   66 1   
    71   65   67 1   
    72   72   73 1   
    73   72   76 1   
    74   73   74 1   
    75   73   77 1   
    76   73   78 1   
    77   74   75 2   
    78   74   79 1   
    79   79   80 1   
    80   79   86 1   
    81   80   81 1   
    82   80   83 1   
    83   80   87 1   
    84   81   82 2   
    85   81   93 1   
    86   83   84 1   
    87   83   85 1   
    88   83   88 1   
    89   84   90 1   
    90   84   91 1   
    91   84   92 1   
    92   85   89 1   
    93   93   94 1   
    94   93  101 1   
    95   94   95 1   
    96   94   97 1   
    97   94  102 1   
    98   95   96 2   
    99   95  112 1   
   100   97   98 1   
   101   97   99 1   
   102   97  103 1   
   103   98  100 1   
   104   98  104 1   
   105   98  105 1   
   106   99  106 1   
   107   99  107 1   
   108   99  108 1   
   109  100  109 1   
   110  100  110 1   
   111  100  111 1   
   112  112  113 1   
   113  112  119 1   
   114  113  114 1   
   115  113  116 1   
   116  113  120 1   
   117  114  115 2   
   118  114  126 1   
   119  116  117 1   
   120  116  118 1   
   121  116  121 1   
   122  117  123 1   
   123  117  124 1   
   124  117  125 1   
   125  118  122 1   
   126  126  127 1   
   127  126  133 1   
   128  127  128 1   
   129  127  130 1   
   130  127  134 1   
   131  128  129 2   
   132  128  140 1   
   133  130  131 1   
   134  130  132 1   
   135  130  135 1   
   136  131  137 1   
   137  131  138 1   
   138  131  139 1   
   139  132  136 1   
   140  140  141 1   
   141  140  149 1   
   142  141  142 1   
   143  141  144 1   
   144  141  150 1   
   145  142  143 2   
   146  142  162 1   
   147  144  145 1   
   148  144  151 1   
   149  144  152 1   
   150  145  146 1   
   151  145  153 1   
   152  145  154 1   
   153  146  147 1   
   154  146  155 1   
   155  146  156 1   
   156  147  148 1   
   157  147  157 1   
   158  147  158 1   
   159  148  159 1   
   160  148  160 1   
   161  148  161 1   
   162  162  163 1   
   163  162  171 1   
   164  163  164 1   
   165  163  166 1   
   166  163  172 1   
   167  164  165 2   
   168  164  177 1   
   169  166  167 1   
   170  166  173 1   
   171  166  174 1   
   172  167  168 1   
   173  167  175 1   
   174  167  176 1   
   175  168  169 1   
   176  168  170 1   
   177  177  178 1   
   178  177  182 1   
   179  178  179 1   
   180  178  180 1   
   181  178  181 1   
   182  184  185 1   
   183  184  186 1   
   184  187  188 1   
   185  187  189 1   
@<TRIPOS>SUBSTRUCTURE
     1 MOL         1 TEMP              0 ****  ****    0 ROOT
