@<TRIPOS>MOLECULE
MOL
  179   176     1     0     0
SMALL
resp


@<TRIPOS>ATOM
      1 C1         -1.5530   -4.0070    6.8580 c3        1 MOL     -0.332142
      2 C2         -1.6900   -3.3440    5.4170 c         1 MOL      0.662473
      3 O1         -2.7070   -2.7930    4.9830 o         1 MOL     -0.541867
      4 H1         -1.0630   -3.3060    7.5350 hc        1 MOL      0.090427
      5 H2         -2.5430   -4.2510    7.2420 hc        1 MOL      0.090427
      6 H3         -0.9570   -4.9160    6.7850 hc        1 MOL      0.090427
      7 N1         -0.5550   -3.2890    4.6640 n         1 MOL     -0.568652
      8 C3         -0.5070   -2.8560    3.2580 c3        1 MOL      0.083504
      9 C4         -1.1460   -3.8300    2.3060 c         1 MOL      0.541258
     10 O2         -1.4460   -4.9310    2.6950 o         1 MOL     -0.552182
     11 C5          0.9920   -2.5460    2.8170 c3        1 MOL     -0.059112
     12 C6          1.1640   -1.9350    1.4270 c         1 MOL      0.872702
     13 O3          2.2810   -1.7520    1.0210 o         1 MOL     -0.758661
     14 O4          0.1760   -1.5220    0.7560 o         1 MOL     -0.758661
     15 H4          0.2960   -3.6990    5.0180 hn        1 MOL      0.299996
     16 H5         -1.0580   -1.9130    3.1800 h1        1 MOL      0.058852
     17 H6          1.5370   -3.4900    2.8440 hc        1 MOL      0.017960
     18 H7          1.4010   -1.8100    3.5040 hc        1 MOL      0.017960
     19 N2         -1.3750   -3.5930    1.0230 n         1 MOL     -0.241382
     20 C7         -1.9270   -4.5220    0.0830 c3        1 MOL     -0.121280
     21 C8         -0.9360   -5.2590   -0.8630 c         1 MOL      0.522555
     22 O5         -1.2270   -6.2710   -1.4570 o         1 MOL     -0.568726
     23 C9         -3.1230   -3.8610   -0.6450 c3        1 MOL      0.197745
     24 C10        -4.1950   -4.8110   -1.1850 c3        1 MOL     -0.163808
     25 C11        -5.5490   -4.1400   -1.5130 c3        1 MOL     -0.139695
     26 C12        -6.4800   -5.2470   -2.0590 c3        1 MOL      0.124731
     27 N3         -7.7680   -4.8540   -2.6320 n4        1 MOL     -0.444048
     28 H8         -1.3240   -2.6430    0.6750 hn        1 MOL      0.171260
     29 H9         -2.3640   -5.3020    0.7020 h1        1 MOL      0.072848
     30 H10        -2.7140   -3.3510   -1.5180 hc        1 MOL      0.019542
     31 H11        -3.4810   -3.0420   -0.0230 hc        1 MOL      0.019542
     32 H12        -4.3500   -5.7460   -0.6390 hc        1 MOL      0.057722
     33 H13        -3.8750   -5.1340   -2.1750 hc        1 MOL      0.057722
     34 H14        -5.4570   -3.2470   -2.1260 hc        1 MOL      0.091372
     35 H15        -6.0590   -3.9520   -0.5620 hc        1 MOL      0.091372
     36 H16        -6.6880   -5.8990   -1.2140 hx        1 MOL      0.068924
     37 H17        -5.9640   -5.8890   -2.7740 hx        1 MOL      0.068924
     38 H18        -7.6210   -4.1430   -3.3420 hn        1 MOL      0.346323
     39 H19        -8.2540   -5.6290   -3.0530 hn        1 MOL      0.346323
     40 H20        -8.3800   -4.4230   -1.9450 hn        1 MOL      0.346323
     41 N4          0.2730   -4.7110   -0.9760 n         1 MOL     -0.309370
     42 C13         1.4820   -5.4160   -1.6340 c3        1 MOL      0.093130
     43 C14         2.7490   -5.2680   -0.8010 c         1 MOL      0.355456
     44 O6          3.7480   -5.7880   -1.2790 o         1 MOL     -0.511304
     45 C15         1.6920   -4.9040   -3.0500 c3        1 MOL     -0.316039
     46 C16         1.8840   -3.4230   -3.2060 c         1 MOL      0.829467
     47 O7          1.9620   -2.7240   -2.1600 o         1 MOL     -0.702698
     48 O8          2.1460   -2.9970   -4.3430 o         1 MOL     -0.702698
     49 H21         0.5190   -3.8030   -0.6000 hn        1 MOL      0.156171
     50 H22         1.3260   -6.4940   -1.6720 h1        1 MOL      0.105897
     51 H23         0.7810   -5.1650   -3.5880 hc        1 MOL      0.084596
     52 H24         2.5730   -5.3170   -3.5490 hc        1 MOL      0.084596
     53 N5          2.8040   -4.4500    0.2110 n         1 MOL     -0.089204
     54 C17         3.9820   -4.4350    1.0550 c3        1 MOL     -0.137845
     55 C18         5.1200   -3.5880    0.3030 c         1 MOL      0.524727
     56 O9          6.2800   -3.7120    0.5640 o         1 MOL     -0.582662
     57 H25         2.0400   -3.8470    0.4890 hn        1 MOL      0.006155
     58 H26         4.4440   -5.4070    1.2280 h1        1 MOL      0.092030
     59 H27         3.8020   -3.8950    1.9830 h1        1 MOL      0.092030
     60 N6          4.8110   -2.7090   -0.6830 n         1 MOL     -0.067520
     61 C19         5.8710   -2.0240   -1.4330 c3        1 MOL     -0.102997
     62 C20         6.5730   -0.9330   -0.6390 c         1 MOL      0.414998
     63 O10         7.4810   -0.2940   -1.1460 o         1 MOL     -0.535869
     64 C21         5.2670   -1.5350   -2.7910 c3        1 MOL     -0.194572
     65 C22         4.5600   -0.2080   -2.7460 c         1 MOL      0.661798
     66 N7          4.9370    0.6860   -3.6570 n         1 MOL     -0.718916
     67 O11         3.6530    0.0560   -1.9770 o         1 MOL     -0.581344
     68 H28         3.8280   -2.5300   -0.8770 hn        1 MOL      0.077164
     69 H29         6.6540   -2.7340   -1.7250 h1        1 MOL      0.151617
     70 H30         4.5080   -2.1780   -3.2300 hc        1 MOL      0.088969
     71 H31         6.0820   -1.4410   -3.5090 hc        1 MOL      0.088969
     72 H32         5.6720    0.4030   -4.2980 hn        1 MOL      0.349767
     73 H33         4.5890    1.6260   -3.5540 hn        1 MOL      0.349767
     74 N8          6.2000   -0.5890    0.5690 n         1 MOL     -0.120032
     75 C23         6.8670    0.4200    1.4480 c3        1 MOL     -0.315834
     76 C24         6.0650    1.6480    1.8570 c         1 MOL      0.577488
     77 O12         6.4680    2.4730    2.6930 o         1 MOL     -0.583177
     78 H34         5.4660   -1.1630    0.9430 hn        1 MOL      0.208018
     79 H35         7.7930    0.8370    1.0520 h1        1 MOL      0.155038
     80 H36         7.1460   -0.0130    2.4180 h1        1 MOL      0.155038
     81 N9          4.8810    1.7830    1.3250 n         1 MOL     -0.278789
     82 C25         3.8450    2.7720    1.4770 c3        1 MOL      0.323642
     83 C26         2.4930    2.1250    1.4910 c         1 MOL      0.197379
     84 O13         2.3340    1.1220    0.8960 o         1 MOL     -0.399042
     85 C27         3.9810    3.8010    0.2630 c3        1 MOL      0.036862
     86 C28         5.3740    4.3220    0.0450 ca        1 MOL     -0.022809
     87 C29         6.2960    3.6300   -0.7610 ca        1 MOL     -0.142726
     88 C30         5.6320    5.5660    0.6380 ca        1 MOL     -0.142726
     89 C31         7.5860    4.2870   -1.0100 ca        1 MOL     -0.246821
     90 C32         6.9050    6.1960    0.2800 ca        1 MOL     -0.246821
     91 C33         7.8260    5.5680   -0.5410 ca        1 MOL      0.348858
     92 O14         9.0060    6.1420   -0.8920 oh        1 MOL     -0.515608
     93 H37         4.5440    1.0030    0.7690 hn        1 MOL      0.110824
     94 H38         3.8570    3.2670    2.4450 h1        1 MOL     -0.016168
     95 H39         3.3050    4.6280    0.4700 hc        1 MOL     -0.014789
     96 H40         3.6920    3.3110   -0.6600 hc        1 MOL     -0.014789
     97 H41         5.9730    2.7220   -1.2420 ha        1 MOL      0.130569
     98 H42         4.8860    6.0630    1.2420 ha        1 MOL      0.130569
     99 H43         8.2620    3.8780   -1.7500 ha        1 MOL      0.136989
    100 H44         7.1850    7.0910    0.8160 ha        1 MOL      0.136989
    101 H45         9.2710    7.0130   -0.5920 ho        1 MOL      0.381051
    102 N10         1.4740    2.7980    2.0000 n         1 MOL     -0.236017
    103 C34         0.0130    2.4600    1.8960 c3        1 MOL     -0.170957
    104 C35        -0.6850    3.5700    1.1520 c         1 MOL      0.405326
    105 O15        -0.6210    4.7350    1.5820 o         1 MOL     -0.548185
    106 C36        -0.6640    2.2340    3.3030 c3        1 MOL      0.261714
    107 C37         0.2210    1.2150    4.0300 c3        1 MOL      0.018469
    108 C38        -2.0970    1.7480    3.1710 c3        1 MOL     -0.227741
    109 C39        -0.4000    0.5650    5.2380 c3        1 MOL     -0.273010
    110 H46         1.7040    3.6230    2.5320 hn        1 MOL      0.257566
    111 H47        -0.1320    1.5030    1.3980 h1        1 MOL      0.042286
    112 H48        -0.7400    3.1710    3.8640 hc        1 MOL     -0.011959
    113 H49         1.1370    1.7630    4.2460 hc        1 MOL     -0.003156
    114 H50         0.4180    0.4330    3.2920 hc        1 MOL     -0.003156
    115 H51        -2.5580    1.7960    4.1570 hc        1 MOL      0.054916
    116 H52        -2.6110    2.6060    2.7400 hc        1 MOL      0.054916
    117 H53        -2.3060    0.8380    2.6060 hc        1 MOL      0.054916
    118 H54         0.3620   -0.0630    5.6970 hc        1 MOL      0.071070
    119 H55        -0.8090    1.2720    5.9560 hc        1 MOL      0.071070
    120 H56        -1.1410   -0.1830    4.9260 hc        1 MOL      0.071070
    121 N11        -1.3500    3.2280    0.0690 n         1 MOL     -0.157459
    122 C40        -2.1290    4.1670   -0.7810 c3        1 MOL      0.058885
    123 C41        -3.6200    4.3040   -0.4530 c         1 MOL      0.360748
    124 O16        -4.1970    3.4640    0.2270 o         1 MOL     -0.346142
    125 C42        -2.0520    3.7090   -2.2660 c3        1 MOL      0.200683
    126 O17        -0.9130    3.0110   -2.6710 oh        1 MOL     -0.627084
    127 H57        -1.2250    2.2760   -0.2530 hn        1 MOL      0.312838
    128 H58        -1.5790    5.0980   -0.6310 h1        1 MOL      0.061128
    129 H59        -2.1590    4.6520   -2.7930 h1        1 MOL      0.014113
    130 H60        -2.8500    3.0330   -2.5800 h1        1 MOL      0.014113
    131 H61        -0.8920    2.1140   -2.3550 ho        1 MOL      0.378386
    132 N12        -4.3040    5.4040   -0.7540 n         1 MOL     -0.543450
    133 C43        -5.6380    5.6170   -0.1680 c3        1 MOL      0.343104
    134 C44        -6.5720    4.4110   -0.4820 c         1 MOL      0.360021
    135 O18        -7.1630    3.8280    0.4240 o         1 MOL     -0.480141
    136 C45        -6.2270    6.9680   -0.6720 c3        1 MOL     -0.446182
    137 H62        -3.9090    6.1960   -1.2440 hn        1 MOL      0.309484
    138 H63        -5.5220    5.7950    0.8910 h1        1 MOL      0.066106
    139 H64        -6.6260    6.8940   -1.6880 hc        1 MOL      0.125529
    140 H65        -7.0440    7.1960    0.0170 hc        1 MOL      0.125529
    141 H66        -5.4890    7.7480   -0.8390 hc        1 MOL      0.125529
    142 N13        -6.5740    3.8360   -1.6890 n         1 MOL     -0.306322
    143 C46        -7.3370    2.6750   -2.1760 c3        1 MOL      0.121725
    144 C47        -7.0310    1.3700   -1.4370 c         1 MOL      0.380765
    145 O19        -7.8730    0.5010   -1.1560 o         1 MOL     -0.527841
    146 C48        -7.2120    2.5990   -3.6160 c3        1 MOL     -0.304619
    147 H67        -5.9520    4.2980   -2.3340 hn        1 MOL      0.189568
    148 H68        -8.4050    2.8110   -1.9680 h1        1 MOL      0.087639
    149 H69        -6.1640    2.4800   -3.8690 hc        1 MOL      0.089129
    150 H70        -7.7110    1.6970   -3.9440 hc        1 MOL      0.089129
    151 H71        -7.6210    3.4880   -4.1090 hc        1 MOL      0.089129
    152 N14        -5.7730    1.2810   -1.0530 n         1 MOL     -0.164076
    153 C49        -5.3130    0.2330   -0.1740 c3        1 MOL      0.008020
    154 C50        -5.6530    0.4100    1.2910 c         1 MOL      0.403562
    155 O20        -5.7670   -0.5850    2.0290 o         1 MOL     -0.539624
    156 C51        -3.7840   -0.0470   -0.2520 c3        1 MOL      0.234418
    157 C52        -3.3120   -0.3320   -1.6750 c3        1 MOL     -0.475844
    158 C53        -1.7940   -0.3250   -1.6970 c         1 MOL      0.896991
    159 O21        -1.1010    0.6080   -1.2830 o         1 MOL     -0.721719
    160 O22        -1.1760   -1.3300   -2.1170 o         1 MOL     -0.721719
    161 H72        -5.1990    2.0940   -1.2090 hn        1 MOL      0.157546
    162 H73        -5.8140   -0.6890   -0.4830 h1        1 MOL      0.010606
    163 H74        -3.4910   -0.9360    0.3120 hc        1 MOL     -0.059578
    164 H75        -3.2110    0.8000    0.1370 hc        1 MOL     -0.059578
    165 H76        -3.6010    0.4860   -2.3400 hc        1 MOL      0.069305
    166 H77        -3.6550   -1.3420   -1.9000 hc        1 MOL      0.069305
    167 N15        -5.8830    1.6680    1.7320 n         1 MOL      0.008979
    168 C54        -6.2970    1.8910    3.0870 c3        1 MOL     -0.275921
    169 H78        -5.6910    2.6830    3.5260 h1        1 MOL      0.102906
    170 H79        -7.3460    2.1860    3.1030 h1        1 MOL      0.102906
    171 H80        -6.1690    0.9750    3.6630 h1        1 MOL      0.102906
    172 H81        -5.7590    2.4350    1.0860 hn        1 MOL      0.037652
    173 Ca1         1.1960   -0.3710   -1.2030 Ca        1 MOL      1.691989
    174 O23         1.6320    2.2980   -1.8050 oh        1 MOL     -0.919981
    175 H82         0.9890    2.7990   -2.3030 ho        1 MOL      0.426325
    176 H83         2.4630    2.4420   -2.2710 ho        1 MOL      0.426325
    177 O24         0.9740    0.0890   -3.7450 oh        1 MOL     -0.919981
    178 H84         1.6240   -0.0200   -4.4370 ho        1 MOL      0.426325
    179 H85         0.1790    0.3860   -4.1970 ho        1 MOL      0.426325
@<TRIPOS>BOND
     1    1    2 1   
     2    1    4 1   
     3    1    5 1   
     4    1    6 1   
     5    2    3 2   
     6    2    7 1   
     7    7    8 1   
     8    7   15 1   
     9    8    9 1   
    10    8   11 1   
    11    8   16 1   
    12    9   10 2   
    13    9   19 1   
    14   11   12 1   
    15   11   17 1   
    16   11   18 1   
    17   12   13 1   
    18   12   14 1   
    19   19   20 1   
    20   19   28 1   
    21   20   21 1   
    22   20   23 1   
    23   20   29 1   
    24   21   22 2   
    25   21   41 1   
    26   23   24 1   
    27   23   30 1   
    28   23   31 1   
    29   24   25 1   
    30   24   32 1   
    31   24   33 1   
    32   25   26 1   
    33   25   34 1   
    34   25   35 1   
    35   26   27 1   
    36   26   36 1   
    37   26   37 1   
    38   27   38 1   
    39   27   39 1   
    40   27   40 1   
    41   41   42 1   
    42   41   49 1   
    43   42   43 1   
    44   42   45 1   
    45   42   50 1   
    46   43   44 2   
    47   43   53 1   
    48   45   46 1   
    49   45   51 1   
    50   45   52 1   
    51   46   47 1   
    52   46   48 1   
    53   53   54 1   
    54   53   57 1   
    55   54   55 1   
    56   54   58 1   
    57   54   59 1   
    58   55   56 2   
    59   55   60 1   
    60   60   61 1   
    61   60   68 1   
    62   61   62 1   
    63   61   64 1   
    64   61   69 1   
    65   62   63 2   
    66   62   74 1   
    67   64   65 1   
    68   64   70 1   
    69   64   71 1   
    70   65   66 1   
    71   65   67 2   
    72   66   72 1   
    73   66   73 1   
    74   74   75 1   
    75   74   78 1   
    76   75   76 1   
    77   75   79 1   
    78   75   80 1   
    79   76   77 2   
    80   76   81 1   
    81   81   82 1   
    82   81   93 1   
    83   82   83 1   
    84   82   85 1   
    85   82   94 1   
    86   83   84 2   
    87   83  102 1   
    88   85   86 1   
    89   85   95 1   
    90   85   96 1   
    91   86   87 ar  
    92   86   88 ar  
    93   87   89 ar  
    94   87   97 1   
    95   88   90 ar  
    96   88   98 1   
    97   89   91 ar  
    98   89   99 1   
    99   90   91 ar  
   100   90  100 1   
   101   91   92 1   
   102   92  101 1   
   103  102  103 1   
   104  102  110 1   
   105  103  104 1   
   106  103  106 1   
   107  103  111 1   
   108  104  105 2   
   109  104  121 1   
   110  106  107 1   
   111  106  108 1   
   112  106  112 1   
   113  107  109 1   
   114  107  113 1   
   115  107  114 1   
   116  108  115 1   
   117  108  116 1   
   118  108  117 1   
   119  109  118 1   
   120  109  119 1   
   121  109  120 1   
   122  121  122 1   
   123  121  127 1   
   124  122  123 1   
   125  122  125 1   
   126  122  128 1   
   127  123  124 2   
   128  123  132 1   
   129  125  126 1   
   130  125  129 1   
   131  125  130 1   
   132  126  131 1   
   133  132  133 1   
   134  132  137 1   
   135  133  134 1   
   136  133  136 1   
   137  133  138 1   
   138  134  135 2   
   139  134  142 1   
   140  136  139 1   
   141  136  140 1   
   142  136  141 1   
   143  142  143 1   
   144  142  147 1   
   145  143  144 1   
   146  143  146 1   
   147  143  148 1   
   148  144  145 2   
   149  144  152 1   
   150  146  149 1   
   151  146  150 1   
   152  146  151 1   
   153  152  153 1   
   154  152  161 1   
   155  153  154 1   
   156  153  156 1   
   157  153  162 1   
   158  154  155 2   
   159  154  167 1   
   160  156  157 1   
   161  156  163 1   
   162  156  164 1   
   163  157  158 1   
   164  157  165 1   
   165  157  166 1   
   166  158  159 1   
   167  158  160 1   
   168  167  168 1   
   169  167  172 1   
   170  168  169 1   
   171  168  170 1   
   172  168  171 1   
   173  174  175 1   
   174  174  176 1   
   175  177  178 1   
   176  177  179 1   
@<TRIPOS>SUBSTRUCTURE
     1 MOL         1 TEMP              0 ****  ****    0 ROOT
