@<TRIPOS>MOLECULE
MOL
  176   174     1     0     0
SMALL
resp


@<TRIPOS>ATOM
      1 C1          0.5140    4.2130    6.2950 c3        1 MOL     -0.294760
      2 C2          0.4610    3.4280    4.9720 c         1 MOL      0.691966
      3 O1          1.4670    3.2880    4.2600 o         1 MOL     -0.567324
      4 H1          0.8150    5.2410    6.0950 hc        1 MOL      0.078134
      5 H2         -0.4710    4.2070    6.7620 hc        1 MOL      0.078134
      6 H3          1.2360    3.7470    6.9660 hc        1 MOL      0.078134
      7 N1         -0.7180    2.8470    4.6820 n         1 MOL     -0.631967
      8 C3         -1.2520    2.5380    3.4070 c3        1 MOL      0.229764
      9 C4         -1.5220    3.8380    2.6080 c         1 MOL      0.566174
     10 O2         -2.1420    4.7820    3.1160 o         1 MOL     -0.569536
     11 C5         -2.4580    1.4810    3.3860 c3        1 MOL     -0.438918
     12 C6         -2.6140    0.8950    1.9300 c         1 MOL      1.221445
     13 O3         -3.0010    1.6580    1.0020 o         1 MOL     -0.974612
     14 O4         -2.4990   -0.3250    1.7310 o         1 MOL     -0.974612
     15 H4         -1.3540    2.9260    5.4720 hn        1 MOL      0.325696
     16 H5         -0.3960    2.0970    2.9000 h1        1 MOL      0.003570
     17 H6         -3.3790    1.9690    3.6840 hc        1 MOL      0.109924
     18 H7         -2.1510    0.6560    4.0340 hc        1 MOL      0.109924
     19 N2         -1.0580    3.9120    1.3420 n         1 MOL     -0.343780
     20 C7         -1.2390    5.0720    0.4280 c3        1 MOL     -0.193049
     21 C8         -2.6690    5.1900   -0.0550 c         1 MOL      0.648911
     22 O5         -3.0100    6.3070   -0.3710 o         1 MOL     -0.588107
     23 C9         -0.1610    4.9390   -0.7470 c3        1 MOL      0.012760
     24 C10        -0.1170    5.9450   -1.9200 c3        1 MOL     -0.081593
     25 C11         0.9350    5.4950   -2.9110 c3        1 MOL     -0.048039
     26 C12         0.8980    6.4210   -4.1240 c3        1 MOL      0.048392
     27 N3          1.4480    5.7610   -5.3660 n4        1 MOL     -0.337792
     28 H8         -0.7010    3.1300    0.8210 hn        1 MOL      0.182773
     29 H9         -1.0190    5.9370    1.0510 h1        1 MOL      0.126040
     30 H10        -0.2350    3.9160   -1.1250 hc        1 MOL      0.062279
     31 H11         0.7740    5.0510   -0.1900 hc        1 MOL      0.062279
     32 H12         0.0150    6.9800   -1.5900 hc        1 MOL      0.048414
     33 H13        -1.1210    5.9180   -2.3360 hc        1 MOL      0.048414
     34 H14         0.7450    4.4620   -3.1930 hc        1 MOL      0.039934
     35 H15         1.9030    5.4770   -2.4100 hc        1 MOL      0.039934
     36 H16         1.3960    7.3410   -3.8420 hx        1 MOL      0.081720
     37 H17        -0.1270    6.7380   -4.2950 hx        1 MOL      0.081720
     38 H18         0.9690    4.9080   -5.5840 hn        1 MOL      0.321580
     39 H19         1.5340    6.3670   -6.1670 hn        1 MOL      0.321580
     40 H20         2.3690    5.4490   -5.0920 hn        1 MOL      0.321580
     41 N4         -3.3720    4.1090   -0.2930 n         1 MOL     -0.453141
     42 C13        -4.4370    4.0980   -1.2540 c3        1 MOL      0.062012
     43 C14        -5.6160    3.2310   -0.7240 c         1 MOL      0.422983
     44 O6         -6.6680    3.2970   -1.3980 o         1 MOL     -0.560716
     45 C15        -3.9390    3.4820   -2.5940 c3        1 MOL     -0.097794
     46 C16        -3.1860    2.1770   -2.5120 c         1 MOL      0.760169
     47 O7         -3.7290    1.1650   -2.0530 o         1 MOL     -0.724650
     48 O8         -2.0670    2.1130   -2.9750 o         1 MOL     -0.724650
     49 H21        -3.0070    3.2180    0.0260 hn        1 MOL      0.296188
     50 H22        -4.7590    5.1310   -1.4080 h1        1 MOL      0.102322
     51 H23        -3.2840    4.2110   -3.0710 hc        1 MOL      0.013227
     52 H24        -4.7860    3.4210   -3.2870 hc        1 MOL      0.013227
     53 N5         -5.4880    2.3950    0.3170 n         1 MOL     -0.215480
     54 C17        -6.6310    1.7590    0.9470 c3        1 MOL     -0.129042
     55 C18        -7.0040    0.3790    0.5150 c         1 MOL      0.583377
     56 O9         -7.7220   -0.3160    1.2410 o         1 MOL     -0.589331
     57 H25        -4.5700    2.3810    0.7460 hn        1 MOL      0.223402
     58 H26        -7.4470    2.4780    1.0410 h1        1 MOL      0.087486
     59 H27        -6.3490    1.5680    1.9850 h1        1 MOL      0.087486
     60 N6         -6.3930   -0.0400   -0.5680 n         1 MOL     -0.473255
     61 C19        -6.7350   -1.2630   -1.2750 c3        1 MOL      0.227694
     62 C20        -6.6150   -2.5020   -0.3790 c         1 MOL      0.382948
     63 O10        -7.3060   -3.4880   -0.7050 o         1 MOL     -0.544180
     64 C21        -5.8670   -1.3140   -2.5110 c3        1 MOL     -0.340425
     65 C22        -4.5550   -2.0680   -2.4490 c         1 MOL      0.651821
     66 N7         -4.2900   -2.9740   -3.3430 n         1 MOL     -0.621288
     67 O11        -3.7810   -1.8540   -1.5400 o         1 MOL     -0.794978
     68 H28        -5.9000    0.7020   -1.0420 hn        1 MOL      0.299138
     69 H29        -7.7490   -1.1910   -1.6790 h1        1 MOL      0.062472
     70 H30        -5.7420   -0.2910   -2.8670 hc        1 MOL      0.113003
     71 H31        -6.4640   -1.7620   -3.2900 hc        1 MOL      0.113003
     72 H32        -4.9640   -3.2200   -4.0490 hn        1 MOL      0.321706
     73 H33        -3.3850   -3.4010   -3.3920 hn        1 MOL      0.321706
     74 N8         -5.7480   -2.5520    0.6380 n         1 MOL     -0.056038
     75 C23        -5.6970   -3.6280    1.6840 c3        1 MOL     -0.229457
     76 C24        -4.2900   -4.1460    2.0810 c         1 MOL      0.461779
     77 O12        -4.2220   -4.9340    3.0650 o         1 MOL     -0.537620
     78 H34        -5.3440   -1.6800    0.9630 hn        1 MOL      0.214285
     79 H35        -6.2930   -4.4480    1.2640 h1        1 MOL      0.125631
     80 H36        -6.0840   -3.3130    2.6540 h1        1 MOL      0.125631
     81 N9         -3.2010   -3.6350    1.4960 n         1 MOL     -0.212463
     82 C25        -1.8020   -4.0880    1.7850 c3        1 MOL      0.042907
     83 C26        -0.6760   -3.0840    1.4350 c         1 MOL      0.500748
     84 O13        -0.7200   -2.4480    0.3690 o         1 MOL     -0.551125
     85 C27        -1.5760   -5.4850    1.1200 c3        1 MOL     -0.177976
     86 C28        -1.6400   -5.4520   -0.4180 ca        1 MOL      0.054644
     87 C29        -0.5150   -5.2050   -1.1760 ca        1 MOL     -0.169320
     88 C30        -2.9020   -5.5940   -0.9910 ca        1 MOL     -0.169320
     89 C31        -0.5830   -4.9660   -2.5660 ca        1 MOL     -0.203568
     90 C32        -2.9980   -5.3910   -2.3720 ca        1 MOL     -0.203568
     91 C33        -1.8300   -4.9790   -3.1140 ca        1 MOL      0.258933
     92 O14        -2.0050   -4.7180   -4.4720 oh        1 MOL     -0.535527
     93 H37        -3.2330   -2.9330    0.7750 hn        1 MOL      0.273494
     94 H38        -1.6720   -4.2350    2.8630 h1        1 MOL      0.034817
     95 H39        -2.3300   -6.1920    1.4510 hc        1 MOL      0.083161
     96 H40        -0.5970   -5.8380    1.4380 hc        1 MOL      0.083161
     97 H41         0.4230   -5.1430   -0.6380 ha        1 MOL      0.166066
     98 H42        -3.7370   -5.7970   -0.3410 ha        1 MOL      0.166066
     99 H43         0.3360   -4.7580   -3.1030 ha        1 MOL      0.150363
    100 H44        -3.9270   -5.4530   -2.9280 ha        1 MOL      0.150363
    101 H45        -1.1670   -4.6980   -4.9540 ho        1 MOL      0.379201
    102 N10         0.4070   -3.0820    2.2140 n         1 MOL     -0.329104
    103 C34         1.6320   -2.4030    1.8760 c3        1 MOL     -0.446988
    104 C35         2.6740   -3.3270    1.2090 c         1 MOL      0.628173
    105 O15         2.9020   -4.3960    1.6440 o         1 MOL     -0.537586
    106 C36         2.1110   -1.5210    3.0150 c3        1 MOL      0.269281
    107 C37         2.8240   -2.2810    4.1300 c3        1 MOL     -0.025117
    108 C38         0.9500   -0.5920    3.5150 c3        1 MOL     -0.062951
    109 C39         3.2130   -1.4920    5.3830 c3        1 MOL     -0.141620
    110 H46         0.4190   -3.7540    2.9690 hn        1 MOL      0.314480
    111 H47         1.3810   -1.6160    1.1690 h1        1 MOL      0.195154
    112 H48         2.8980   -0.8950    2.6140 hc        1 MOL     -0.066239
    113 H49         3.7840   -2.6990    3.8150 hc        1 MOL      0.023342
    114 H50         2.0910   -3.0080    4.4970 hc        1 MOL      0.023342
    115 H51         0.2970   -1.1470    4.2020 hc        1 MOL      0.024963
    116 H52         1.3250    0.2240    4.1350 hc        1 MOL      0.024963
    117 H53         0.3150   -0.1980    2.7220 hc        1 MOL      0.024963
    118 H54         2.3480   -1.0170    5.8610 hc        1 MOL      0.037139
    119 H55         3.5120   -2.1990    6.1590 hc        1 MOL      0.037139
    120 H56         4.0030   -0.8200    5.0620 hc        1 MOL      0.037139
    121 N11         3.3570   -2.6930    0.2400 n         1 MOL     -0.413766
    122 C40         4.6030   -3.3100   -0.2530 c3        1 MOL      0.116634
    123 C41         5.7400   -2.3260    0.0190 c         1 MOL      0.448577
    124 O16         5.6150   -1.1250    0.2820 o         1 MOL     -0.398847
    125 C42         4.5480   -3.6310   -1.7910 c3        1 MOL      0.321879
    126 O17         3.5250   -4.6040   -1.9910 oh        1 MOL     -0.582354
    127 H57         3.1180   -1.7900   -0.1370 hn        1 MOL      0.274561
    128 H58         4.8090   -4.2490    0.2450 h1        1 MOL      0.070134
    129 H59         5.4790   -4.1250   -2.0620 h1        1 MOL     -0.012130
    130 H60         4.3980   -2.7700   -2.4480 h1        1 MOL     -0.012130
    131 H61         2.7310   -4.0800   -1.8410 ho        1 MOL      0.313598
    132 N12         6.9770   -2.7970   -0.2110 n         1 MOL     -0.518834
    133 C43         8.2770   -2.1380    0.0730 c3        1 MOL      0.198164
    134 C44         8.4650   -0.7330   -0.5970 c         1 MOL      0.455496
    135 O18         8.9400    0.1840    0.0710 o         1 MOL     -0.527752
    136 C45         9.3890   -3.0810   -0.2600 c3        1 MOL     -0.347886
    137 H62         7.0560   -3.7940   -0.3380 hn        1 MOL      0.289663
    138 H63         8.3960   -1.9810    1.1420 h1        1 MOL      0.075985
    139 H64         9.8630   -3.0490   -1.2450 hc        1 MOL      0.105579
    140 H65        10.2470   -2.7340    0.3240 hc        1 MOL      0.105579
    141 H66         9.2350   -4.1140    0.0470 hc        1 MOL      0.105579
    142 N13         8.0280   -0.5710   -1.8080 n         1 MOL     -0.305260
    143 C46         7.9610    0.7800   -2.4200 c3        1 MOL      0.150399
    144 C47         6.6820    1.6660   -2.0720 c         1 MOL      0.440777
    145 O19         6.7340    2.8630   -2.3620 o         1 MOL     -0.532867
    146 C48         8.2580    0.5890   -3.9000 c3        1 MOL     -0.224203
    147 H67         7.4510   -1.3180   -2.1750 hn        1 MOL      0.161155
    148 H68         8.8030    1.3780   -2.0730 h1        1 MOL      0.096147
    149 H69         7.3460    0.1590   -4.3040 hc        1 MOL      0.060271
    150 H70         8.2440    1.5330   -4.4410 hc        1 MOL      0.060271
    151 H71         9.0900   -0.0740   -4.1590 hc        1 MOL      0.060271
    152 N14         5.7300    1.1570   -1.3100 n         1 MOL     -0.357874
    153 C49         4.6910    1.9730   -0.6590 c3        1 MOL      0.048516
    154 C50         5.1260    2.2950    0.7550 c         1 MOL      0.514560
    155 O20         4.9230    3.4210    1.1950 o         1 MOL     -0.552844
    156 C51         3.4080    1.1370   -0.6530 c3        1 MOL     -0.179618
    157 C52         2.2510    1.8560    0.0420 c3        1 MOL      0.117798
    158 C53         0.9600    1.1610   -0.2700 c         1 MOL      0.694097
    159 O21        -0.1340    1.7510   -0.0590 o         1 MOL     -0.751689
    160 O22         0.8600    0.0260   -0.7600 o         1 MOL     -0.751689
    161 H72         5.7530    0.1700   -1.0810 hn        1 MOL      0.196387
    162 H73         4.4750    2.9040   -1.1840 h1        1 MOL      0.078300
    163 H74         3.6410    0.1830   -0.1750 hc        1 MOL      0.022118
    164 H75         3.1240    1.0160   -1.7000 hc        1 MOL      0.022118
    165 H76         2.0580    2.8990   -0.2030 hc        1 MOL      0.001171
    166 H77         2.3480    1.8730    1.1290 hc        1 MOL      0.001171
    167 N15         5.8980    1.4000    1.4080 n         1 MOL     -0.212909
    168 C54         6.6550    1.6600    2.7030 c3        1 MOL     -0.122390
    169 H78         6.7190    2.7340    2.8770 h1        1 MOL      0.082472
    170 H79         6.1290    1.1890    3.5330 h1        1 MOL      0.082472
    171 H80         7.6600    1.2450    2.6270 h1        1 MOL      0.082472
    172 H81         6.0530    0.5730    0.8480 hn        1 MOL      0.143730
    173 Ca1        -1.8030   -0.1660   -0.7450 Ca        1 MOL      1.795659
    174 O23        -1.0570   -0.8340   -3.2000 oh        1 MOL     -0.815687
    175 H82        -0.6690   -1.6040   -3.6130 ho        1 MOL      0.398850
    176 H83        -1.4950   -0.3730   -3.9010 ho        1 MOL      0.398850
@<TRIPOS>BOND
     1    1    2 1   
     2    1    4 1   
     3    1    5 1   
     4    1    6 1   
     5    2    3 2   
     6    2    7 1   
     7    7    8 1   
     8    7   15 1   
     9    8    9 1   
    10    8   11 1   
    11    8   16 1   
    12    9   10 2   
    13    9   19 1   
    14   11   12 1   
    15   11   17 1   
    16   11   18 1   
    17   12   13 1   
    18   12   14 1   
    19   19   20 1   
    20   19   28 1   
    21   20   21 1   
    22   20   23 1   
    23   20   29 1   
    24   21   22 2   
    25   21   41 1   
    26   23   24 1   
    27   23   30 1   
    28   23   31 1   
    29   24   25 1   
    30   24   32 1   
    31   24   33 1   
    32   25   26 1   
    33   25   34 1   
    34   25   35 1   
    35   26   27 1   
    36   26   36 1   
    37   26   37 1   
    38   27   38 1   
    39   27   39 1   
    40   27   40 1   
    41   41   42 1   
    42   41   49 1   
    43   42   43 1   
    44   42   45 1   
    45   42   50 1   
    46   43   44 2   
    47   43   53 1   
    48   45   46 1   
    49   45   51 1   
    50   45   52 1   
    51   46   47 1   
    52   46   48 1   
    53   53   54 1   
    54   53   57 1   
    55   54   55 1   
    56   54   58 1   
    57   54   59 1   
    58   55   56 2   
    59   55   60 1   
    60   60   61 1   
    61   60   68 1   
    62   61   62 1   
    63   61   64 1   
    64   61   69 1   
    65   62   63 2   
    66   62   74 1   
    67   64   65 1   
    68   64   70 1   
    69   64   71 1   
    70   65   66 1   
    71   65   67 2   
    72   66   72 1   
    73   66   73 1   
    74   74   75 1   
    75   74   78 1   
    76   75   76 1   
    77   75   79 1   
    78   75   80 1   
    79   76   77 2   
    80   76   81 1   
    81   81   82 1   
    82   81   93 1   
    83   82   83 1   
    84   82   85 1   
    85   82   94 1   
    86   83   84 2   
    87   83  102 1   
    88   85   86 1   
    89   85   95 1   
    90   85   96 1   
    91   86   87 ar  
    92   86   88 ar  
    93   87   89 ar  
    94   87   97 1   
    95   88   90 ar  
    96   88   98 1   
    97   89   91 ar  
    98   89   99 1   
    99   90   91 ar  
   100   90  100 1   
   101   91   92 1   
   102   92  101 1   
   103  102  103 1   
   104  102  110 1   
   105  103  104 1   
   106  103  106 1   
   107  103  111 1   
   108  104  105 2   
   109  104  121 1   
   110  106  107 1   
   111  106  108 1   
   112  106  112 1   
   113  107  109 1   
   114  107  113 1   
   115  107  114 1   
   116  108  115 1   
   117  108  116 1   
   118  108  117 1   
   119  109  118 1   
   120  109  119 1   
   121  109  120 1   
   122  121  122 1   
   123  121  127 1   
   124  122  123 1   
   125  122  125 1   
   126  122  128 1   
   127  123  124 2   
   128  123  132 1   
   129  125  126 1   
   130  125  129 1   
   131  125  130 1   
   132  126  131 1   
   133  132  133 1   
   134  132  137 1   
   135  133  134 1   
   136  133  136 1   
   137  133  138 1   
   138  134  135 2   
   139  134  142 1   
   140  136  139 1   
   141  136  140 1   
   142  136  141 1   
   143  142  143 1   
   144  142  147 1   
   145  143  144 1   
   146  143  146 1   
   147  143  148 1   
   148  144  145 2   
   149  144  152 1   
   150  146  149 1   
   151  146  150 1   
   152  146  151 1   
   153  152  153 1   
   154  152  161 1   
   155  153  154 1   
   156  153  156 1   
   157  153  162 1   
   158  154  155 2   
   159  154  167 1   
   160  156  157 1   
   161  156  163 1   
   162  156  164 1   
   163  157  158 1   
   164  157  165 1   
   165  157  166 1   
   166  158  159 1   
   167  158  160 1   
   168  167  168 1   
   169  167  172 1   
   170  168  169 1   
   171  168  170 1   
   172  168  171 1   
   173  174  175 1   
   174  174  176 1   
@<TRIPOS>SUBSTRUCTURE
     1 MOL         1 TEMP              0 ****  ****    0 ROOT
