@<TRIPOS>MOLECULE
MOL
  189   185     1     0     0
SMALL
resp


@<TRIPOS>ATOM
      1 C1          0.9090    1.7650    5.5640 c3        1 MOL     -0.368811
      2 C2          0.2590    1.7360    4.1520 c         1 MOL      0.672933
      3 O1          0.8900    2.1330    3.1910 o         1 MOL     -0.588497
      4 H1          1.0980    0.7460    5.8980 hc        1 MOL      0.097909
      5 H2          1.8510    2.3130    5.5200 hc        1 MOL      0.097909
      6 H3          0.2360    2.2580    6.2650 hc        1 MOL      0.097909
      7 N1         -0.9790    1.2260    3.9660 n         1 MOL     -0.452795
      8 C3         -1.7380    1.3260    2.8050 c3        1 MOL      0.069416
      9 C4         -2.0100    2.7980    2.5120 c         1 MOL      0.462205
     10 O2         -2.6310    3.5380    3.2660 o         1 MOL     -0.553155
     11 C5         -2.9920    0.4140    3.0110 c3        1 MOL     -0.183496
     12 C6         -3.7010    0.1190    1.6860 c         1 MOL      0.849849
     13 O3         -3.3500    0.5000    0.5410 o         1 MOL     -0.706670
     14 O4         -4.7160   -0.5870    1.8290 o         1 MOL     -0.706670
     15 H4         -1.4870    0.8870    4.7740 hn        1 MOL      0.269845
     16 H5         -1.2130    0.9030    1.9600 h1        1 MOL     -0.027031
     17 H6         -3.6900    0.8940    3.7080 hc        1 MOL      0.056039
     18 H7         -2.7490   -0.5510    3.4710 hc        1 MOL      0.056039
     19 N2         -1.3410    3.2910    1.4550 n         1 MOL     -0.185657
     20 C7         -1.2780    4.7650    1.1310 c3        1 MOL     -0.028669
     21 C8         -2.4860    5.2110    0.2600 c         1 MOL      0.418595
     22 O5         -2.8580    6.3510    0.1530 o         1 MOL     -0.530874
     23 C9          0.0980    5.0970    0.5020 c3        1 MOL      0.085819
     24 C10         0.3960    6.5630    0.3030 c3        1 MOL     -0.261020
     25 C11         0.2780    7.4640    1.5500 c3        1 MOL      0.049979
     26 C12         0.4410    8.9720    1.2040 c3        1 MOL     -0.061793
     27 N3          1.8910    9.2550    0.8890 n4        1 MOL     -0.416723
     28 H8         -0.7080    2.6640    0.9670 hn        1 MOL      0.238790
     29 H9         -1.4030    5.3010    2.0770 h1        1 MOL      0.082736
     30 H10         0.2270    4.5440   -0.4310 hc        1 MOL      0.038461
     31 H11         0.7860    4.6830    1.2340 hc        1 MOL      0.038461
     32 H12        -0.3940    6.9360   -0.3510 hc        1 MOL      0.059384
     33 H13         1.3510    6.7030   -0.1920 hc        1 MOL      0.059384
     34 H14         1.0670    7.2090    2.2530 hc        1 MOL      0.041611
     35 H15        -0.6760    7.2810    2.0400 hc        1 MOL      0.041611
     36 H16        -0.0170    9.5390    2.0170 hx        1 MOL      0.124771
     37 H17        -0.1440    9.1060    0.2970 hx        1 MOL      0.124771
     38 H18         2.5700    8.9190    1.5630 hn        1 MOL      0.342638
     39 H19         2.0310    8.8180   -0.0050 hn        1 MOL      0.342638
     40 H20         1.9500   10.2540    0.7750 hn        1 MOL      0.342638
     41 N4         -3.0150    4.2620   -0.5780 n         1 MOL     -0.153345
     42 C13        -4.2080    4.3480   -1.4270 c3        1 MOL      0.022347
     43 C14        -5.4480    3.5990   -0.9050 c         1 MOL      0.470588
     44 O6         -6.5460    3.8800   -1.3840 o         1 MOL     -0.519556
     45 C15        -3.9640    3.9720   -2.9420 c3        1 MOL     -0.283992
     46 C16        -3.1290    2.6400   -3.1410 c         1 MOL      0.690686
     47 O7         -2.4040    2.5020   -4.1600 o         1 MOL     -0.649791
     48 O8         -3.0430    1.8190   -2.2420 o         1 MOL     -0.649791
     49 H21        -2.6870    3.3220   -0.3720 hn        1 MOL      0.063792
     50 H22        -4.5090    5.4020   -1.4300 h1        1 MOL      0.074191
     51 H23        -3.4870    4.8890   -3.3100 hc        1 MOL      0.088480
     52 H24        -4.9350    3.8800   -3.4370 hc        1 MOL      0.088480
     53 N5         -5.3100    2.6430    0.0720 n         1 MOL     -0.258431
     54 C17        -6.4780    2.1200    0.7260 c3        1 MOL     -0.100726
     55 C18        -7.1740    1.0300   -0.0980 c         1 MOL      0.571679
     56 O9         -8.4160    0.9650   -0.2560 o         1 MOL     -0.632702
     57 H25        -4.3770    2.2830    0.2060 hn        1 MOL      0.141363
     58 H26        -7.2780    2.8330    0.9310 h1        1 MOL      0.074590
     59 H27        -6.2130    1.5870    1.6380 h1        1 MOL      0.074590
     60 N6         -6.4710    0.0590   -0.5990 n         1 MOL     -0.120320
     61 C19        -6.9870   -0.7960   -1.6590 c3        1 MOL     -0.083706
     62 C20        -7.2900   -2.1860   -1.1660 c         1 MOL      0.442662
     63 O10        -7.6580   -3.0920   -1.9580 o         1 MOL     -0.527228
     64 C21        -6.0190   -0.7790   -2.9130 c3        1 MOL     -0.316125
     65 C22        -4.5540   -1.0730   -2.6650 c         1 MOL      0.852130
     66 O11        -4.3930   -1.5940   -1.5140 o         1 MOL     -0.761733
     67 O12        -3.6470   -1.0350   -3.5360 o         1 MOL     -0.761733
     68 H28        -5.5310   -0.0950   -0.2570 hn        1 MOL      0.030908
     69 H29        -7.9130   -0.3130   -1.9600 h1        1 MOL      0.156281
     70 H30        -6.0480    0.2270   -3.3360 hc        1 MOL      0.096212
     71 H31        -6.4110   -1.4580   -3.6640 hc        1 MOL      0.096212
     72 N7         -7.0060   -2.5300    0.1170 n         1 MOL     -0.293794
     73 C23        -7.1350   -3.8050    0.7770 c3        1 MOL     -0.192486
     74 C24        -5.7710   -4.5210    0.7900 c         1 MOL      0.505523
     75 O13        -5.7250   -5.6980    1.1170 o         1 MOL     -0.565398
     76 H32        -6.4250   -1.8910    0.6400 hn        1 MOL      0.242995
     77 H33        -7.7860   -4.4010    0.1450 h1        1 MOL      0.125297
     78 H34        -7.4090   -3.6950    1.8280 h1        1 MOL      0.125297
     79 N8         -4.6260   -3.8810    0.5110 n         1 MOL     -0.167345
     80 C25        -3.2820   -4.4740    0.4300 c3        1 MOL     -0.486864
     81 C26        -2.1720   -3.4760    0.7700 c         1 MOL      0.732946
     82 O14        -2.2730   -2.2780    0.4760 o         1 MOL     -0.670208
     83 C27        -3.1020   -5.2940   -0.9010 c3        1 MOL      0.629754
     84 C28        -3.7950   -6.6520   -0.9830 c3        1 MOL     -0.434360
     85 O15        -3.5790   -4.5200   -1.9500 oh        1 MOL     -0.715411
     86 H35        -4.7550   -2.9350    0.1810 hn        1 MOL      0.299173
     87 H36        -3.2280   -5.2560    1.1860 h1        1 MOL      0.149053
     88 H37        -2.0420   -5.5460   -0.9210 h1        1 MOL     -0.047793
     89 H38        -4.2590   -3.9230   -1.6170 ho        1 MOL      0.470408
     90 H39        -3.2710   -7.3060   -1.6790 hc        1 MOL      0.109454
     91 H40        -3.8860   -7.1140   -0.0080 hc        1 MOL      0.109454
     92 H41        -4.7740   -6.4490   -1.4260 hc        1 MOL      0.109454
     93 N9         -1.0990   -3.9670    1.3950 n         1 MOL     -0.491348
     94 C29         0.1780   -3.2790    1.5230 c3        1 MOL      0.050193
     95 C30         1.2830   -3.8080    0.6090 c         1 MOL      0.416366
     96 O16         1.4120   -5.0260    0.3430 o         1 MOL     -0.552023
     97 C31         0.7030   -3.2510    3.0200 c3        1 MOL      0.042812
     98 C32        -0.1990   -2.3500    3.8960 c3        1 MOL      0.099284
     99 C33         2.1960   -2.9140    3.2810 c3        1 MOL     -0.089919
    100 C34        -0.1540   -2.8020    5.3550 c3        1 MOL     -0.407601
    101 H42        -1.1900   -4.9000    1.7730 hn        1 MOL      0.285829
    102 H43        -0.0710   -2.2390    1.3190 h1        1 MOL      0.080851
    103 H44         0.5710   -4.2690    3.3860 hc        1 MOL      0.018876
    104 H45        -1.2100   -2.4830    3.4810 hc        1 MOL      0.030658
    105 H46         0.0900   -1.3050    3.8020 hc        1 MOL      0.030658
    106 H47         2.8340   -3.5680    2.6890 hc        1 MOL      0.003524
    107 H48         2.4640   -1.8930    3.0170 hc        1 MOL      0.003524
    108 H49         2.4730   -3.0900    4.3240 hc        1 MOL      0.003524
    109 H50         0.7650   -2.4330    5.8020 hc        1 MOL      0.098682
    110 H51        -1.0140   -2.5330    5.9570 hc        1 MOL      0.098682
    111 H52        -0.0770   -3.8950    5.3690 hc        1 MOL      0.098682
    112 N10         1.9970   -2.8680    0.0180 n         1 MOL     -0.003689
    113 C35         3.1670   -3.1920   -0.8480 c3        1 MOL     -0.030299
    114 C36         4.4870   -2.8670   -0.1190 c         1 MOL      0.271925
    115 O17         4.6000   -2.2950    0.9810 o         1 MOL     -0.250551
    116 C37         3.0740   -2.5310   -2.1790 c3        1 MOL      0.379363
    117 C38         2.0450   -3.1540   -3.1390 c3        1 MOL     -0.404097
    118 O18         2.8420   -1.1820   -2.1890 oh        1 MOL     -0.620845
    119 H53         1.7330   -1.9010    0.1690 hn        1 MOL      0.049277
    120 H54         3.0950   -4.2540   -1.0750 h1        1 MOL      0.057564
    121 H55         4.0480   -2.6320   -2.6660 h1        1 MOL     -0.004300
    122 H56         1.9480   -1.0040   -1.8700 ho        1 MOL      0.373869
    123 H57         2.3670   -4.1730   -3.3250 hc        1 MOL      0.088810
    124 H58         1.1170   -3.1350   -2.5750 hc        1 MOL      0.088810
    125 H59         1.8790   -2.4530   -3.9620 hc        1 MOL      0.088810
    126 N11         5.5110   -3.4620   -0.7080 n         1 MOL     -0.226239
    127 C39         6.8340   -3.4260   -0.0990 c3        1 MOL     -0.276518
    128 C40         7.3130   -2.0030    0.0160 c         1 MOL      0.469541
    129 O19         7.7000   -1.5660    1.1120 o         1 MOL     -0.477323
    130 C41         7.9820   -4.2190   -0.8110 c3        1 MOL      0.479092
    131 C42         7.8470   -5.7430   -0.7900 c3        1 MOL     -0.434159
    132 O20         8.1520   -3.7950   -2.1810 oh        1 MOL     -0.641014
    133 H60         5.4780   -3.8930   -1.6250 hn        1 MOL      0.252361
    134 H61         6.6940   -3.7960    0.9170 h1        1 MOL      0.157191
    135 H62         8.9000   -4.0620   -0.2410 h1        1 MOL      0.005056
    136 H63         9.0450   -4.0230   -2.4620 ho        1 MOL      0.398253
    137 H64         7.5210   -5.9820    0.2220 hc        1 MOL      0.114859
    138 H65         7.1870   -6.0490   -1.6050 hc        1 MOL      0.114859
    139 H66         8.7720   -6.2570   -1.0800 hc        1 MOL      0.114859
    140 N12         7.1180   -1.1750   -1.0430 n         1 MOL     -0.528651
    141 C43         7.2060    0.3250   -1.0710 c3        1 MOL      0.242720
    142 C44         6.5210    1.0160    0.0940 c         1 MOL      0.182454
    143 O21         7.2210    1.7990    0.7740 o         1 MOL     -0.485365
    144 C45         6.8880    0.8290   -2.3890 c3        1 MOL     -0.197771
    145 C46         6.9900    2.3410   -2.4640 c3        1 MOL     -0.018960
    146 C47         6.8770    2.8280   -3.9140 c3        1 MOL      0.157963
    147 C48         7.0720    4.2900   -4.0370 c3        1 MOL     -0.029282
    148 N13         7.2880    4.7380   -5.4360 n4        1 MOL     -0.244553
    149 H67         6.7060   -1.5940   -1.8650 hn        1 MOL      0.285940
    150 H68         8.2580    0.5570   -0.9060 h1        1 MOL      0.079807
    151 H69         5.8490    0.5520   -2.5700 hc        1 MOL      0.046629
    152 H70         7.5650    0.4220   -3.1420 hc        1 MOL      0.046629
    153 H71         7.9210    2.6770   -2.0170 hc        1 MOL      0.016827
    154 H72         6.1750    2.8080   -1.9230 hc        1 MOL      0.016827
    155 H73         5.8910    2.6000   -4.3190 hc        1 MOL     -0.003720
    156 H74         7.5920    2.2540   -4.5150 hc        1 MOL     -0.003720
    157 H75         7.9070    4.6430   -3.4290 hx        1 MOL      0.083353
    158 H76         6.1370    4.7750   -3.7380 hx        1 MOL      0.083353
    159 H77         8.1140    4.3120   -5.8440 hn        1 MOL      0.256482
    160 H78         6.5360    4.6110   -6.1000 hn        1 MOL      0.256482
    161 H79         7.5310    5.7020   -5.3310 hn        1 MOL      0.256482
    162 N14         5.2940    0.6480    0.3530 n         1 MOL      0.161538
    163 C49         4.3730    1.0990    1.3420 c3        1 MOL     -0.218961
    164 C50         4.9730    0.9410    2.7570 c         1 MOL      0.352085
    165 O22         5.1490    1.9260    3.5090 o         1 MOL     -0.521421
    166 C51         2.9600    0.5260    1.2000 c3        1 MOL      0.276129
    167 C52         2.2550    1.3160    0.0570 c3        1 MOL     -0.240304
    168 C53         0.8660    0.7610   -0.3120 c         1 MOL      0.861964
    169 O23        -0.0360    1.5750   -0.5620 o         1 MOL     -0.738743
    170 O24         0.6330   -0.4150   -0.4310 o         1 MOL     -0.738743
    171 H80         4.8450   -0.0120   -0.2630 hn        1 MOL      0.138397
    172 H81         4.3500    2.1830    1.2240 h1        1 MOL      0.084810
    173 H82         2.3240    0.6810    2.0820 hc        1 MOL     -0.029111
    174 H83         2.9780   -0.5510    1.0240 hc        1 MOL     -0.029111
    175 H84         2.9740    1.2550   -0.7560 hc        1 MOL     -0.006885
    176 H85         2.3000    2.3670    0.3420 hc        1 MOL     -0.006885
    177 N15         5.3120   -0.3200    3.0550 n         1 MOL      0.084515
    178 C54         5.8520   -0.7480    4.3210 c3        1 MOL     -0.389549
    179 H86         5.7560   -1.8310    4.4090 h1        1 MOL      0.129782
    180 H87         6.9060   -0.4710    4.3800 h1        1 MOL      0.129782
    181 H88         5.3040   -0.2680    5.1310 h1        1 MOL      0.129782
    182 H89         5.1530   -1.0130    2.3330 hn        1 MOL      0.024327
    183 Ca1        -1.9900   -0.2970   -1.4290 Ca        1 MOL      1.743696
    184 O25        -1.5190   -2.6870   -2.4810 oh        1 MOL     -0.830521
    185 H90        -1.3060   -2.5550   -3.4030 ho        1 MOL      0.416415
    186 H91        -2.1760   -3.3680   -2.4850 ho        1 MOL      0.416415
    187 O26        -0.3240   -0.2470   -3.7560 oh        1 MOL     -0.830521
    188 H92        -0.3680   -0.8260   -4.5230 ho        1 MOL      0.416415
    189 H93         0.3670    0.3810   -3.9630 ho        1 MOL      0.416415
@<TRIPOS>BOND
     1    1    2 1   
     2    1    4 1   
     3    1    5 1   
     4    1    6 1   
     5    2    3 2   
     6    2    7 1   
     7    7    8 1   
     8    7   15 1   
     9    8    9 1   
    10    8   11 1   
    11    8   16 1   
    12    9   10 2   
    13    9   19 1   
    14   11   12 1   
    15   11   17 1   
    16   11   18 1   
    17   12   13 1   
    18   12   14 1   
    19   19   20 1   
    20   19   28 1   
    21   20   21 1   
    22   20   23 1   
    23   20   29 1   
    24   21   22 2   
    25   21   41 1   
    26   23   24 1   
    27   23   30 1   
    28   23   31 1   
    29   24   25 1   
    30   24   32 1   
    31   24   33 1   
    32   25   26 1   
    33   25   34 1   
    34   25   35 1   
    35   26   27 1   
    36   26   36 1   
    37   26   37 1   
    38   27   38 1   
    39   27   39 1   
    40   27   40 1   
    41   41   42 1   
    42   41   49 1   
    43   42   43 1   
    44   42   45 1   
    45   42   50 1   
    46   43   44 2   
    47   43   53 1   
    48   45   46 1   
    49   45   51 1   
    50   45   52 1   
    51   46   47 1   
    52   46   48 1   
    53   53   54 1   
    54   53   57 1   
    55   54   55 1   
    56   54   58 1   
    57   54   59 1   
    58   55   56 2   
    59   55   60 1   
    60   60   61 1   
    61   60   68 1   
    62   61   62 1   
    63   61   64 1   
    64   61   69 1   
    65   62   63 2   
    66   62   72 1   
    67   64   65 1   
    68   64   70 1   
    69   64   71 1   
    70   65   66 1   
    71   65   67 1   
    72   72   73 1   
    73   72   76 1   
    74   73   74 1   
    75   73   77 1   
    76   73   78 1   
    77   74   75 2   
    78   74   79 1   
    79   79   80 1   
    80   79   86 1   
    81   80   81 1   
    82   80   83 1   
    83   80   87 1   
    84   81   82 2   
    85   81   93 1   
    86   83   84 1   
    87   83   85 1   
    88   83   88 1   
    89   84   90 1   
    90   84   91 1   
    91   84   92 1   
    92   85   89 1   
    93   93   94 1   
    94   93  101 1   
    95   94   95 1   
    96   94   97 1   
    97   94  102 1   
    98   95   96 2   
    99   95  112 1   
   100   97   98 1   
   101   97   99 1   
   102   97  103 1   
   103   98  100 1   
   104   98  104 1   
   105   98  105 1   
   106   99  106 1   
   107   99  107 1   
   108   99  108 1   
   109  100  109 1   
   110  100  110 1   
   111  100  111 1   
   112  112  113 1   
   113  112  119 1   
   114  113  114 1   
   115  113  116 1   
   116  113  120 1   
   117  114  115 2   
   118  114  126 1   
   119  116  117 1   
   120  116  118 1   
   121  116  121 1   
   122  117  123 1   
   123  117  124 1   
   124  117  125 1   
   125  118  122 1   
   126  126  127 1   
   127  126  133 1   
   128  127  128 1   
   129  127  130 1   
   130  127  134 1   
   131  128  129 2   
   132  128  140 1   
   133  130  131 1   
   134  130  132 1   
   135  130  135 1   
   136  131  137 1   
   137  131  138 1   
   138  131  139 1   
   139  132  136 1   
   140  140  141 1   
   141  140  149 1   
   142  141  142 1   
   143  141  144 1   
   144  141  150 1   
   145  142  143 2   
   146  142  162 1   
   147  144  145 1   
   148  144  151 1   
   149  144  152 1   
   150  145  146 1   
   151  145  153 1   
   152  145  154 1   
   153  146  147 1   
   154  146  155 1   
   155  146  156 1   
   156  147  148 1   
   157  147  157 1   
   158  147  158 1   
   159  148  159 1   
   160  148  160 1   
   161  148  161 1   
   162  162  163 1   
   163  162  171 1   
   164  163  164 1   
   165  163  166 1   
   166  163  172 1   
   167  164  165 2   
   168  164  177 1   
   169  166  167 1   
   170  166  173 1   
   171  166  174 1   
   172  167  168 1   
   173  167  175 1   
   174  167  176 1   
   175  168  169 1   
   176  168  170 1   
   177  177  178 1   
   178  177  182 1   
   179  178  179 1   
   180  178  180 1   
   181  178  181 1   
   182  184  185 1   
   183  184  186 1   
   184  187  188 1   
   185  187  189 1   
@<TRIPOS>SUBSTRUCTURE
     1 MOL         1 TEMP              0 ****  ****    0 ROOT
