@<TRIPOS>MOLECULE
MOL
  176   174     1     0     0
SMALL
resp


@<TRIPOS>ATOM
      1 C1          1.4210    3.5240    6.1530 c3        1 MOL     -0.271989
      2 C2          1.1280    3.1030    4.6940 c         1 MOL      0.755166
      3 O1          2.0520    2.9660    3.9150 o         1 MOL     -0.587338
      4 H1          2.3430    4.1050    6.1840 hc        1 MOL      0.060784
      5 H2          0.5970    4.1320    6.5290 hc        1 MOL      0.060784
      6 H3          1.5310    2.6350    6.7740 hc        1 MOL      0.060784
      7 N1         -0.1590    2.9130    4.4320 n         1 MOL     -0.675999
      8 C3         -0.6960    2.6620    3.1220 c3        1 MOL      0.239219
      9 C4         -0.7770    4.0030    2.4310 c         1 MOL      0.525791
     10 O2         -1.2870    5.0080    2.9590 o         1 MOL     -0.569166
     11 C5         -2.0400    1.9000    3.2430 c3        1 MOL     -0.383816
     12 C6         -2.4200    1.4150    1.8620 c         1 MOL      1.076965
     13 O3         -2.2610    2.1580    0.8990 o         1 MOL     -0.881099
     14 O4         -2.8260    0.3020    1.5940 o         1 MOL     -0.881099
     15 H4         -0.7710    2.9290    5.2400 hn        1 MOL      0.346627
     16 H5          0.0190    2.0730    2.5470 h1        1 MOL      0.024251
     17 H6         -2.7640    2.5800    3.6970 hc        1 MOL      0.086376
     18 H7         -1.7880    1.0950    3.9270 hc        1 MOL      0.086376
     19 N2         -0.3280    4.0120    1.1640 n         1 MOL     -0.305403
     20 C7         -0.1970    5.1570    0.2830 c3        1 MOL     -0.288018
     21 C8         -1.3890    5.2880   -0.7040 c         1 MOL      0.600714
     22 O5         -1.4370    6.2650   -1.4320 o         1 MOL     -0.600035
     23 C9          1.1500    4.9610   -0.4060 c3        1 MOL      0.191898
     24 C10         1.7220    6.1760   -1.1480 c3        1 MOL     -0.090126
     25 C11         2.9880    5.7430   -2.0280 c3        1 MOL      0.086539
     26 C12         3.4590    6.9170   -2.8970 c3        1 MOL     -0.102963
     27 N3          2.7190    7.1850   -4.1100 n4        1 MOL     -0.325013
     28 H8          0.0200    3.1270    0.8100 hn        1 MOL      0.239507
     29 H9         -0.1840    6.0040    0.9660 h1        1 MOL      0.142529
     30 H10         0.9910    4.1440   -1.1170 hc        1 MOL      0.033599
     31 H11         1.8650    4.6340    0.3490 hc        1 MOL      0.033599
     32 H12         2.0030    6.9390   -0.4290 hc        1 MOL      0.020346
     33 H13         0.9930    6.5540   -1.8580 hc        1 MOL      0.020346
     34 H14         2.6150    4.9860   -2.7230 hc        1 MOL      0.030092
     35 H15         3.8040    5.3670   -1.4020 hc        1 MOL      0.030092
     36 H16         4.5030    6.6990   -3.1530 hx        1 MOL      0.110787
     37 H17         3.5300    7.7980   -2.2490 hx        1 MOL      0.110787
     38 H18         2.6870    6.4170   -4.7630 hn        1 MOL      0.324660
     39 H19         1.7800    7.5470   -4.0320 hn        1 MOL      0.324660
     40 H20         3.0970    8.0060   -4.5670 hn        1 MOL      0.324660
     41 N4         -2.3120    4.3680   -0.7610 n         1 MOL     -0.369880
     42 C13        -3.5100    4.3420   -1.5740 c3        1 MOL      0.017973
     43 C14        -4.8700    3.9110   -0.8990 c         1 MOL      0.425739
     44 O6         -5.9350    4.1620   -1.4410 o         1 MOL     -0.528947
     45 C15        -3.3120    3.6260   -2.8990 c3        1 MOL     -0.210451
     46 C16        -2.9340    2.1670   -2.6290 c         1 MOL      0.770240
     47 O7         -1.7680    1.7290   -2.8110 o         1 MOL     -0.777218
     48 O8         -3.7320    1.4580   -1.9440 o         1 MOL     -0.777218
     49 H21        -2.1530    3.6000   -0.1180 hn        1 MOL      0.333678
     50 H22        -3.7480    5.3860   -1.8010 h1        1 MOL      0.103619
     51 H23        -2.5240    4.1390   -3.4530 hc        1 MOL      0.063059
     52 H24        -4.1720    3.5460   -3.5660 hc        1 MOL      0.063059
     53 N5         -4.8430    3.2480    0.2310 n         1 MOL     -0.170954
     54 C17        -6.0190    2.8420    0.9740 c3        1 MOL     -0.175873
     55 C18        -6.7430    1.6630    0.3820 c         1 MOL      0.578167
     56 O9         -7.9610    1.4480    0.6210 o         1 MOL     -0.613546
     57 H25        -3.9280    3.0100    0.5930 hn        1 MOL      0.157335
     58 H26        -6.6890    3.6910    0.9800 h1        1 MOL      0.101836
     59 H27        -5.7260    2.5730    1.9940 h1        1 MOL      0.101836
     60 N6         -6.1190    0.8090   -0.4570 n         1 MOL     -0.143533
     61 C19        -6.7310   -0.3550   -1.0120 c3        1 MOL     -0.052433
     62 C20        -6.7430   -1.6070   -0.0440 c         1 MOL      0.368539
     63 O10        -6.9510   -2.8050   -0.4830 o         1 MOL     -0.524871
     64 C21        -6.1630   -0.6490   -2.4170 c3        1 MOL     -0.385683
     65 C22        -4.9020   -1.5340   -2.3920 c         1 MOL      0.765613
     66 N7         -4.5450   -2.2300   -3.4120 n         1 MOL     -0.788820
     67 O11        -4.0830   -1.4300   -1.4710 o         1 MOL     -0.603016
     68 H28        -5.1350    0.9860   -0.6270 hn        1 MOL      0.149395
     69 H29        -7.7560   -0.0550   -1.2110 h1        1 MOL      0.148744
     70 H30        -5.9290    0.2470   -2.9820 hc        1 MOL      0.139652
     71 H31        -6.9260   -1.2010   -2.9690 hc        1 MOL      0.139652
     72 H32        -5.1030   -2.3240   -4.2500 hn        1 MOL      0.357377
     73 H33        -3.6540   -2.6860   -3.2920 hn        1 MOL      0.357377
     74 N8         -6.4080   -1.4840    1.2290 n         1 MOL     -0.191621
     75 C23        -6.4220   -2.6080    2.2640 c3        1 MOL     -0.258830
     76 C24        -5.2450   -3.5160    2.4410 c         1 MOL      0.563988
     77 O12        -5.2420   -4.3460    3.3320 o         1 MOL     -0.547967
     78 H34        -6.2980   -0.5140    1.4560 hn        1 MOL      0.218662
     79 H35        -7.3190   -3.2140    2.1320 h1        1 MOL      0.143718
     80 H36        -6.5770   -2.1190    3.2350 h1        1 MOL      0.143718
     81 N9         -4.1160   -3.1830    1.7870 n         1 MOL     -0.233520
     82 C25        -2.8800   -3.8730    1.9480 c3        1 MOL     -0.098290
     83 C26        -1.6760   -3.0590    1.5860 c         1 MOL      0.686327
     84 O13        -1.7340   -2.0910    0.8230 o         1 MOL     -0.627444
     85 C27        -2.8770   -5.1540    1.1210 c3        1 MOL     -0.088607
     86 C28        -2.8620   -5.0800   -0.3520 ca        1 MOL      0.018635
     87 C29        -1.5590   -5.0360   -1.0080 ca        1 MOL     -0.120889
     88 C30        -3.9950   -5.1390   -1.1570 ca        1 MOL     -0.120889
     89 C31        -1.4060   -4.9720   -2.4470 ca        1 MOL     -0.306255
     90 C32        -3.8490   -5.1050   -2.5640 ca        1 MOL     -0.306255
     91 C33        -2.5590   -5.0200   -3.2100 ca        1 MOL      0.388566
     92 O14        -2.4600   -5.0010   -4.5430 oh        1 MOL     -0.558495
     93 H37        -4.1480   -2.4610    1.0910 hn        1 MOL      0.214814
     94 H38        -2.7250   -4.2440    2.9560 h1        1 MOL      0.100842
     95 H39        -3.8390   -5.6370    1.2470 hc        1 MOL      0.061332
     96 H40        -2.0610   -5.8130    1.4250 hc        1 MOL      0.061332
     97 H41        -0.7030   -5.1010   -0.3510 ha        1 MOL      0.157722
     98 H42        -4.9720   -5.1740   -0.6940 ha        1 MOL      0.157722
     99 H43        -0.4200   -4.9960   -2.8950 ha        1 MOL      0.142756
    100 H44        -4.7640   -5.0590   -3.1280 ha        1 MOL      0.142756
    101 H45        -3.2560   -5.1420   -5.0740 ho        1 MOL      0.409266
    102 N10        -0.4330   -3.4590    1.9370 n         1 MOL     -0.531267
    103 C34         0.8330   -2.8840    1.5650 c3        1 MOL     -0.001497
    104 C35         1.8130   -3.8180    0.8460 c         1 MOL      0.328456
    105 O15         1.8990   -5.0850    1.1180 o         1 MOL     -0.526927
    106 C36         1.6300   -2.2020    2.7850 c3        1 MOL      0.248482
    107 C37         2.1090   -3.2340    3.8260 c3        1 MOL     -0.075228
    108 C38         0.9250   -1.0520    3.4180 c3        1 MOL     -0.208015
    109 C39         2.9780   -2.5840    4.9400 c3        1 MOL     -0.113887
    110 H46        -0.3230   -4.3190    2.4540 hn        1 MOL      0.303199
    111 H47         0.6140   -2.1580    0.7780 h1        1 MOL      0.072215
    112 H48         2.5610   -1.9080    2.2880 hc        1 MOL     -0.085689
    113 H49         2.8040   -3.9560    3.3880 hc        1 MOL      0.038003
    114 H50         1.1840   -3.6590    4.1920 hc        1 MOL      0.038003
    115 H51         0.1300   -1.4660    4.0320 hc        1 MOL      0.059096
    116 H52         1.5860   -0.4710    4.0620 hc        1 MOL      0.059096
    117 H53         0.5380   -0.4230    2.6170 hc        1 MOL      0.059096
    118 H54         3.4040   -3.4290    5.4950 hc        1 MOL      0.032545
    119 H55         3.7420   -1.9350    4.5060 hc        1 MOL      0.032545
    120 H56         2.3820   -1.9800    5.6150 hc        1 MOL      0.032545
    121 N11         2.6240   -3.2230   -0.0590 n         1 MOL     -0.166101
    122 C40         3.7930   -3.7450   -0.7350 c3        1 MOL      0.076577
    123 C41         5.2050   -3.1860   -0.3220 c         1 MOL      0.438187
    124 O16         5.3020   -2.1460    0.3420 o         1 MOL     -0.407185
    125 C42         3.5060   -3.6040   -2.2410 c3        1 MOL     -0.103104
    126 O17         3.9910   -2.2810   -2.5630 oh        1 MOL     -0.548494
    127 H57         2.4530   -2.2420   -0.2140 hn        1 MOL      0.213910
    128 H58         3.8220   -4.8060   -0.4510 h1        1 MOL      0.047686
    129 H59         2.4400   -3.6160   -2.4710 h1        1 MOL      0.106506
    130 H60         3.9500   -4.3300   -2.9250 h1        1 MOL      0.106506
    131 H61         3.3210   -1.7740   -3.0310 ho        1 MOL      0.413314
    132 N12         6.3000   -3.8120   -0.7210 n         1 MOL     -0.410288
    133 C43         7.6260   -3.4210   -0.3760 c3        1 MOL      0.184057
    134 C44         7.9840   -1.9790   -0.7820 c         1 MOL      0.440192
    135 O18         8.6930   -1.2690   -0.0650 o         1 MOL     -0.512737
    136 C45         8.6140   -4.4200   -0.8830 c3        1 MOL     -0.260002
    137 H62         6.0710   -4.5870   -1.3230 hn        1 MOL      0.277379
    138 H63         7.7680   -3.4210    0.7050 h1        1 MOL      0.067439
    139 H64         9.5750   -4.2220   -0.4120 hc        1 MOL      0.078088
    140 H65         8.2860   -5.4310   -0.6220 hc        1 MOL      0.078088
    141 H66         8.7190   -4.2780   -1.9610 hc        1 MOL      0.078088
    142 N13         7.3460   -1.4150   -1.8370 n         1 MOL     -0.277730
    143 C46         7.5640   -0.0070   -2.2050 c3        1 MOL     -0.001841
    144 C47         6.8270    1.0280   -1.3480 c         1 MOL      0.415668
    145 O19         7.2850    2.1960   -1.1110 o         1 MOL     -0.508330
    146 C48         7.0200    0.0690   -3.6830 c3        1 MOL     -0.223729
    147 H67         6.7570   -1.9780   -2.4370 hn        1 MOL      0.220590
    148 H68         8.6100    0.2680   -2.1000 h1        1 MOL      0.106516
    149 H69         5.9340   -0.0400   -3.6510 hc        1 MOL      0.066514
    150 H70         7.1890    1.0310   -4.1530 hc        1 MOL      0.066514
    151 H71         7.5040   -0.6990   -4.2820 hc        1 MOL      0.066514
    152 N14         5.5710    0.7490   -0.9840 n         1 MOL     -0.281258
    153 C49         4.8240    1.5370    0.0310 c3        1 MOL     -0.072497
    154 C50         5.5150    1.5660    1.3670 c         1 MOL      0.389397
    155 O20         5.6370    2.6210    2.0070 o         1 MOL     -0.521878
    156 C51         3.3900    0.8990    0.1370 c3        1 MOL      0.107643
    157 C52         2.4770    1.3150   -0.9890 c3        1 MOL      0.152489
    158 C53         1.0690    0.7740   -0.6960 c         1 MOL      0.686956
    159 O21         0.3560    1.4390    0.0790 o         1 MOL     -0.747529
    160 O22         0.7000   -0.2780   -1.2560 o         1 MOL     -0.747529
    161 H72         5.4230   -0.2460   -0.9710 hn        1 MOL      0.231676
    162 H73         4.6500    2.5680   -0.2870 h1        1 MOL      0.106216
    163 H74         2.9150    1.2770    1.0430 hc        1 MOL     -0.007100
    164 H75         3.5280   -0.1750    0.2310 hc        1 MOL     -0.007100
    165 H76         2.8440    0.7350   -1.8390 hc        1 MOL     -0.129781
    166 H77         2.6160    2.3870   -1.1480 hc        1 MOL     -0.129781
    167 N15         6.1540    0.4870    1.7520 n         1 MOL      0.013226
    168 C54         6.9230    0.3970    2.9880 c3        1 MOL     -0.281842
    169 H78         7.9090    0.8350    2.8340 h1        1 MOL      0.110853
    170 H79         6.4050    0.9390    3.7790 h1        1 MOL      0.110853
    171 H80         7.0300   -0.6490    3.2740 h1        1 MOL      0.110853
    172 H81         5.9700   -0.3210    1.1660 hn        1 MOL      0.062639
    173 Ca1        -1.8680   -0.0180   -0.8650 Ca        1 MOL      1.815171
    174 O23        -1.4040   -1.3980   -3.1260 oh        1 MOL     -0.861047
    175 H82        -0.8320   -2.0870   -3.4420 ho        1 MOL      0.420198
    176 H83        -1.5960   -0.8630   -3.8920 ho        1 MOL      0.420198
@<TRIPOS>BOND
     1    1    2 1   
     2    1    4 1   
     3    1    5 1   
     4    1    6 1   
     5    2    3 2   
     6    2    7 1   
     7    7    8 1   
     8    7   15 1   
     9    8    9 1   
    10    8   11 1   
    11    8   16 1   
    12    9   10 2   
    13    9   19 1   
    14   11   12 1   
    15   11   17 1   
    16   11   18 1   
    17   12   13 1   
    18   12   14 1   
    19   19   20 1   
    20   19   28 1   
    21   20   21 1   
    22   20   23 1   
    23   20   29 1   
    24   21   22 2   
    25   21   41 1   
    26   23   24 1   
    27   23   30 1   
    28   23   31 1   
    29   24   25 1   
    30   24   32 1   
    31   24   33 1   
    32   25   26 1   
    33   25   34 1   
    34   25   35 1   
    35   26   27 1   
    36   26   36 1   
    37   26   37 1   
    38   27   38 1   
    39   27   39 1   
    40   27   40 1   
    41   41   42 1   
    42   41   49 1   
    43   42   43 1   
    44   42   45 1   
    45   42   50 1   
    46   43   44 2   
    47   43   53 1   
    48   45   46 1   
    49   45   51 1   
    50   45   52 1   
    51   46   47 1   
    52   46   48 1   
    53   53   54 1   
    54   53   57 1   
    55   54   55 1   
    56   54   58 1   
    57   54   59 1   
    58   55   56 2   
    59   55   60 1   
    60   60   61 1   
    61   60   68 1   
    62   61   62 1   
    63   61   64 1   
    64   61   69 1   
    65   62   63 2   
    66   62   74 1   
    67   64   65 1   
    68   64   70 1   
    69   64   71 1   
    70   65   66 1   
    71   65   67 2   
    72   66   72 1   
    73   66   73 1   
    74   74   75 1   
    75   74   78 1   
    76   75   76 1   
    77   75   79 1   
    78   75   80 1   
    79   76   77 2   
    80   76   81 1   
    81   81   82 1   
    82   81   93 1   
    83   82   83 1   
    84   82   85 1   
    85   82   94 1   
    86   83   84 2   
    87   83  102 1   
    88   85   86 1   
    89   85   95 1   
    90   85   96 1   
    91   86   87 ar  
    92   86   88 ar  
    93   87   89 ar  
    94   87   97 1   
    95   88   90 ar  
    96   88   98 1   
    97   89   91 ar  
    98   89   99 1   
    99   90   91 ar  
   100   90  100 1   
   101   91   92 1   
   102   92  101 1   
   103  102  103 1   
   104  102  110 1   
   105  103  104 1   
   106  103  106 1   
   107  103  111 1   
   108  104  105 2   
   109  104  121 1   
   110  106  107 1   
   111  106  108 1   
   112  106  112 1   
   113  107  109 1   
   114  107  113 1   
   115  107  114 1   
   116  108  115 1   
   117  108  116 1   
   118  108  117 1   
   119  109  118 1   
   120  109  119 1   
   121  109  120 1   
   122  121  122 1   
   123  121  127 1   
   124  122  123 1   
   125  122  125 1   
   126  122  128 1   
   127  123  124 2   
   128  123  132 1   
   129  125  126 1   
   130  125  129 1   
   131  125  130 1   
   132  126  131 1   
   133  132  133 1   
   134  132  137 1   
   135  133  134 1   
   136  133  136 1   
   137  133  138 1   
   138  134  135 2   
   139  134  142 1   
   140  136  139 1   
   141  136  140 1   
   142  136  141 1   
   143  142  143 1   
   144  142  147 1   
   145  143  144 1   
   146  143  146 1   
   147  143  148 1   
   148  144  145 2   
   149  144  152 1   
   150  146  149 1   
   151  146  150 1   
   152  146  151 1   
   153  152  153 1   
   154  152  161 1   
   155  153  154 1   
   156  153  156 1   
   157  153  162 1   
   158  154  155 2   
   159  154  167 1   
   160  156  157 1   
   161  156  163 1   
   162  156  164 1   
   163  157  158 1   
   164  157  165 1   
   165  157  166 1   
   166  158  159 1   
   167  158  160 1   
   168  167  168 1   
   169  167  172 1   
   170  168  169 1   
   171  168  170 1   
   172  168  171 1   
   173  174  175 1   
   174  174  176 1   
@<TRIPOS>SUBSTRUCTURE
     1 MOL         1 TEMP              0 ****  ****    0 ROOT
