@<TRIPOS>MOLECULE
MOL
  176   174     1     0     0
SMALL
resp


@<TRIPOS>ATOM
      1 C1          0.9820    2.3290    6.3420 c3        1 MOL     -0.286417
      2 C2          0.8900    2.0950    4.8230 c         1 MOL      0.749703
      3 O1          1.8720    1.7600    4.1840 o         1 MOL     -0.601967
      4 H1          0.2170    1.7390    6.8470 hc        1 MOL      0.062904
      5 H2          1.9660    2.0260    6.6990 hc        1 MOL      0.062904
      6 H3          0.8260    3.3860    6.5580 hc        1 MOL      0.062904
      7 N1         -0.2640    2.4130    4.3930 n         1 MOL     -0.590043
      8 C3         -0.6030    2.3290    2.9580 c3        1 MOL      0.294128
      9 C4         -0.2340    3.6720    2.2950 c         1 MOL      0.534327
     10 O2         -0.7460    4.6900    2.8310 o         1 MOL     -0.596384
     11 C5         -2.0110    1.8910    2.7270 c3        1 MOL     -0.414186
     12 C6         -2.2680    1.5660    1.2390 c         1 MOL      1.056092
     13 O3         -2.0850    2.4140    0.3510 o         1 MOL     -0.812025
     14 O4         -2.5450    0.3960    0.8220 o         1 MOL     -0.812025
     15 H4         -0.9810    2.6590    5.0650 hn        1 MOL      0.328645
     16 H5          0.0800    1.6250    2.4820 h1        1 MOL     -0.061458
     17 H6         -2.7250    2.6830    2.9450 hc        1 MOL      0.086375
     18 H7         -2.1630    0.9650    3.2810 hc        1 MOL      0.086375
     19 N2          0.4780    3.7460    1.2080 n         1 MOL     -0.284308
     20 C7          0.9750    5.0080    0.6610 c3        1 MOL     -0.285534
     21 C8          0.0110    5.7350   -0.2870 c         1 MOL      0.572631
     22 O5          0.2750    6.8830   -0.6320 o         1 MOL     -0.572318
     23 C9          2.3270    4.6430    0.0080 c3        1 MOL      0.063797
     24 C10         3.1430    5.8590   -0.3010 c3        1 MOL     -0.122048
     25 C11         4.3760    5.6380   -1.1960 c3        1 MOL     -0.170649
     26 C12         5.3680    6.7890   -0.9340 c3        1 MOL      0.158821
     27 N3          6.4630    6.6860   -1.9570 n4        1 MOL     -0.411983
     28 H8          0.7210    2.8730    0.7570 hn        1 MOL      0.203181
     29 H9          1.1940    5.6980    1.4830 h1        1 MOL      0.153916
     30 H10         2.0960    3.9610   -0.8130 hc        1 MOL      0.081230
     31 H11         2.8820    3.9930    0.6860 hc        1 MOL      0.081230
     32 H12         3.4040    6.3360    0.6390 hc        1 MOL      0.067550
     33 H13         2.5800    6.6170   -0.8570 hc        1 MOL      0.067550
     34 H14         3.9190    5.7070   -2.1820 hc        1 MOL      0.078749
     35 H15         4.7560    4.6250   -1.0380 hc        1 MOL      0.078749
     36 H16         5.8190    6.6400    0.0420 hx        1 MOL      0.065904
     37 H17         4.8460    7.7420   -0.9420 hx        1 MOL      0.065904
     38 H18         6.0460    6.4980   -2.8640 hn        1 MOL      0.332505
     39 H19         6.9720    7.5620   -1.9580 hn        1 MOL      0.332505
     40 H20         7.2210    6.0480   -1.7640 hn        1 MOL      0.332505
     41 N4         -1.0660    5.0200   -0.6710 n         1 MOL     -0.380577
     42 C13        -2.1210    5.5590   -1.5800 c3        1 MOL      0.068526
     43 C14        -3.5440    5.5310   -0.9880 c         1 MOL      0.405025
     44 O6         -4.3930    6.3460   -1.4480 o         1 MOL     -0.546486
     45 C15        -2.0910    4.8070   -2.9260 c3        1 MOL     -0.159603
     46 C16        -2.0910    3.2950   -2.8200 c         1 MOL      0.756631
     47 O7         -3.0700    2.6190   -2.4290 o         1 MOL     -0.796897
     48 O8         -0.9690    2.6750   -2.8370 o         1 MOL     -0.796897
     49 H21        -1.1190    4.0890   -0.3020 hn        1 MOL      0.383726
     50 H22        -1.8190    6.5860   -1.7500 h1        1 MOL      0.089184
     51 H23        -1.1510    5.0550   -3.4130 hc        1 MOL      0.049932
     52 H24        -2.8840    5.1210   -3.6020 hc        1 MOL      0.049932
     53 N5         -3.7960    4.6010   -0.0570 n         1 MOL     -0.140611
     54 C17        -4.9830    4.4370    0.6970 c3        1 MOL     -0.098928
     55 C18        -5.8650    3.2310    0.2180 c         1 MOL      0.493492
     56 O9         -6.9020    3.0300    0.8130 o         1 MOL     -0.559061
     57 H25        -3.0700    3.9150    0.0410 hn        1 MOL      0.076384
     58 H26        -5.5860    5.3420    0.6750 h1        1 MOL      0.095668
     59 H27        -4.6780    4.2310    1.7270 h1        1 MOL      0.095668
     60 N6         -5.5160    2.3800   -0.7730 n         1 MOL     -0.254357
     61 C19        -6.4630    1.3050   -1.1470 c3        1 MOL     -0.042848
     62 C20        -6.6610    0.1890   -0.0920 c         1 MOL      0.412152
     63 O10        -7.6000   -0.6260   -0.1430 o         1 MOL     -0.530451
     64 C21        -6.2080    0.7220   -2.6070 c3        1 MOL     -0.405038
     65 C22        -5.0380   -0.3290   -2.5950 c         1 MOL      0.733776
     66 N7         -5.2060   -1.4810   -3.2350 n         1 MOL     -0.805258
     67 O11        -4.0510   -0.1610   -1.9280 o         1 MOL     -0.562034
     68 H28        -4.6940    2.4720   -1.3520 hn        1 MOL      0.276267
     69 H29        -7.4000    1.8720   -1.1570 h1        1 MOL      0.139515
     70 H30        -5.9080    1.6120   -3.1670 hc        1 MOL      0.145780
     71 H31        -7.0740    0.2310   -3.0530 hc        1 MOL      0.145780
     72 H32        -6.1400   -1.6430   -3.5980 hn        1 MOL      0.373410
     73 H33        -4.6100   -2.2790   -3.0660 hn        1 MOL      0.373410
     74 N8         -5.7350    0.0260    0.8600 n         1 MOL     -0.025436
     75 C23        -5.7650   -0.9170    1.9770 c3        1 MOL     -0.318707
     76 C24        -5.0440   -2.2160    1.7570 c         1 MOL      0.591448
     77 O12        -5.5260   -3.2270    2.2620 o         1 MOL     -0.561314
     78 H34        -4.8630    0.4980    0.6500 hn        1 MOL      0.046625
     79 H35        -6.8030   -1.1910    2.1790 h1        1 MOL      0.144429
     80 H36        -5.3040   -0.4650    2.8590 h1        1 MOL      0.144429
     81 N9         -4.0630   -2.2420    0.8840 n         1 MOL     -0.360411
     82 C25        -3.3150   -3.4650    0.4910 c3        1 MOL      0.032271
     83 C26        -1.8500   -3.0270    0.2600 c         1 MOL      0.605868
     84 O13        -1.6680   -2.2080   -0.6150 o         1 MOL     -0.629618
     85 C27        -3.7690   -4.1890   -0.7750 c3        1 MOL      0.036425
     86 C28        -5.1040   -4.9030   -0.5810 ca        1 MOL      0.240347
     87 C29        -5.0930   -6.3020   -0.4690 ca        1 MOL     -0.408096
     88 C30        -6.2750   -4.1530   -0.7380 ca        1 MOL     -0.408096
     89 C31        -6.3310   -6.9660   -0.2710 ca        1 MOL     -0.002767
     90 C32        -7.5220   -4.7880   -0.3940 ca        1 MOL     -0.002767
     91 C33        -7.5310   -6.1800   -0.2760 ca        1 MOL      0.129861
     92 O14        -8.7170   -6.7340    0.0290 oh        1 MOL     -0.494938
     93 H37        -3.8460   -1.3350    0.4970 hn        1 MOL      0.217074
     94 H38        -3.4180   -4.1520    1.3330 h1        1 MOL      0.069053
     95 H39        -2.9990   -4.8740   -1.1220 hc        1 MOL     -0.009410
     96 H40        -3.9060   -3.4860   -1.5970 hc        1 MOL     -0.009410
     97 H41        -4.1400   -6.8140   -0.5480 ha        1 MOL      0.180462
     98 H42        -6.2310   -3.0740   -0.7770 ha        1 MOL      0.180462
     99 H43        -6.3940   -8.0420   -0.2010 ha        1 MOL      0.102271
    100 H44        -8.4650   -4.2760   -0.4730 ha        1 MOL      0.102271
    101 H45        -9.3490   -6.0420    0.2280 ho        1 MOL      0.389282
    102 N10        -0.8690   -3.6460    0.8950 n         1 MOL     -0.475256
    103 C34         0.4570   -3.0520    0.8510 c3        1 MOL      0.027691
    104 C35         1.4980   -4.0260    0.2550 c         1 MOL      0.570000
    105 O15         1.4380   -5.2460    0.3830 o         1 MOL     -0.545552
    106 C36         0.9150   -2.4240    2.1910 c3        1 MOL     -0.003146
    107 C37         1.0420   -3.4850    3.3440 c3        1 MOL     -0.292566
    108 C38         0.0250   -1.2410    2.5830 c3        1 MOL      0.131361
    109 C39         1.6550   -2.8340    4.6150 c3        1 MOL     -0.085294
    110 H46        -1.0210   -4.3890    1.5600 hn        1 MOL      0.286137
    111 H47         0.4830   -2.1250    0.2730 h1        1 MOL      0.038865
    112 H48         1.9230   -2.0150    2.0750 hc        1 MOL      0.031766
    113 H49         1.7080   -4.2920    3.0490 hc        1 MOL      0.107465
    114 H50         0.0690   -3.8850    3.6400 hc        1 MOL      0.107465
    115 H51        -1.0400   -1.4560    2.6780 hc        1 MOL     -0.018027
    116 H52         0.2920   -0.7980    3.5460 hc        1 MOL     -0.018027
    117 H53         0.1240   -0.4650    1.8230 hc        1 MOL     -0.018027
    118 H54         0.9150   -2.4000    5.2890 hc        1 MOL      0.036559
    119 H55         2.1570   -3.5500    5.2630 hc        1 MOL      0.036559
    120 H56         2.4660   -2.1610    4.3370 hc        1 MOL      0.036559
    121 N11         2.3320   -3.4050   -0.5890 n         1 MOL     -0.332020
    122 C40         3.4390   -4.0320   -1.2790 c3        1 MOL      0.121108
    123 C41         4.7320   -4.0250   -0.4960 c         1 MOL      0.404493
    124 O16         4.9120   -3.4220    0.5810 o         1 MOL     -0.409137
    125 C42         3.6020   -3.3290   -2.6390 c3        1 MOL     -0.289692
    126 O17         4.3320   -2.1570   -2.4650 oh        1 MOL     -0.301559
    127 H57         2.0520   -2.4650   -0.8330 hn        1 MOL      0.202033
    128 H58         3.1710   -5.0770   -1.4230 h1        1 MOL      0.064947
    129 H59         2.5840   -3.0720   -2.9290 h1        1 MOL      0.129956
    130 H60         4.0770   -3.9410   -3.4110 h1        1 MOL      0.129956
    131 H61         4.4830   -1.7540   -3.3280 ho        1 MOL      0.366254
    132 N12         5.7410   -4.7400   -1.0230 n         1 MOL     -0.386144
    133 C43         7.1610   -4.7250   -0.6310 c3        1 MOL      0.127697
    134 C44         7.8010   -3.3140   -0.7280 c         1 MOL      0.459809
    135 O18         8.5140   -2.8210    0.1270 o         1 MOL     -0.500182
    136 C45         7.8890   -5.6200   -1.5770 c3        1 MOL     -0.258334
    137 H62         5.4790   -5.2860   -1.8270 hn        1 MOL      0.249795
    138 H63         7.2410   -5.0200    0.4220 h1        1 MOL      0.083552
    139 H64         8.1860   -5.0360   -2.4410 hc        1 MOL      0.078265
    140 H65         8.8700   -5.7080   -1.1170 hc        1 MOL      0.078265
    141 H66         7.4830   -6.6070   -1.8000 hc        1 MOL      0.078265
    142 N13         7.4250   -2.5040   -1.7680 n         1 MOL     -0.249285
    143 C46         7.9470   -1.1540   -1.9990 c3        1 MOL      0.071873
    144 C47         7.2410   -0.1810   -0.9900 c         1 MOL      0.357117
    145 O19         7.9080    0.7270   -0.4760 o         1 MOL     -0.516171
    146 C48         7.7960   -0.8090   -3.5110 c3        1 MOL     -0.311999
    147 H67         6.8430   -2.9570   -2.4650 hn        1 MOL      0.174203
    148 H68         9.0060   -1.1890   -1.7270 h1        1 MOL      0.096732
    149 H69         8.3680    0.1110   -3.6420 hc        1 MOL      0.086179
    150 H70         8.1430   -1.6360   -4.1230 hc        1 MOL      0.086179
    151 H71         6.7380   -0.6370   -3.7230 hc        1 MOL      0.086179
    152 N14         5.9820   -0.4060   -0.6360 n         1 MOL      0.016408
    153 C49         5.2440    0.4260    0.3640 c3        1 MOL     -0.237735
    154 C50         5.7480    0.0870    1.7480 c         1 MOL      0.440366
    155 O20         5.9930    0.9720    2.5820 o         1 MOL     -0.549197
    156 C51         3.7300    0.0960    0.3480 c3        1 MOL      0.189435
    157 C52         3.0590    0.8000   -0.8070 c3        1 MOL     -0.046380
    158 C53         1.5430    0.6020   -0.9250 c         1 MOL      0.793267
    159 O21         0.9880   -0.1800   -1.7420 o         1 MOL     -0.731220
    160 O22         0.7600    1.3600   -0.3200 o         1 MOL     -0.731220
    161 H72         5.5590   -1.1540   -1.1640 hn        1 MOL      0.023266
    162 H73         5.3350    1.4960    0.2130 h1        1 MOL      0.134384
    163 H74         3.2640    0.3850    1.2990 hc        1 MOL     -0.013537
    164 H75         3.6020   -0.9830    0.2480 hc        1 MOL     -0.013537
    165 H76         3.5300    0.2680   -1.6340 hc        1 MOL     -0.079310
    166 H77         3.3940    1.8390   -0.8200 hc        1 MOL     -0.079310
    167 N15         6.0910   -1.1670    2.0360 n         1 MOL     -0.057500
    168 C54         6.8450   -1.6990    3.2220 c3        1 MOL     -0.252838
    169 H78         7.4410   -0.8990    3.6600 h1        1 MOL      0.108259
    170 H79         6.1400   -2.0740    3.9640 h1        1 MOL      0.108259
    171 H80         7.5010   -2.5080    2.9030 h1        1 MOL      0.108259
    172 H81         5.9100   -1.7740    1.2440 hn        1 MOL      0.087429
    173 Ca1        -1.5530    0.4780   -1.5710 Ca        1 MOL      1.756626
    174 O23        -1.3050   -1.3210   -3.6360 oh        1 MOL     -0.854930
    175 H82        -0.5100   -1.8570   -3.6090 ho        1 MOL      0.420665
    176 H83        -1.9900   -1.9180   -3.9540 ho        1 MOL      0.420665
@<TRIPOS>BOND
     1    1    2 1   
     2    1    4 1   
     3    1    5 1   
     4    1    6 1   
     5    2    3 2   
     6    2    7 1   
     7    7    8 1   
     8    7   15 1   
     9    8    9 1   
    10    8   11 1   
    11    8   16 1   
    12    9   10 2   
    13    9   19 1   
    14   11   12 1   
    15   11   17 1   
    16   11   18 1   
    17   12   13 1   
    18   12   14 1   
    19   19   20 1   
    20   19   28 1   
    21   20   21 1   
    22   20   23 1   
    23   20   29 1   
    24   21   22 2   
    25   21   41 1   
    26   23   24 1   
    27   23   30 1   
    28   23   31 1   
    29   24   25 1   
    30   24   32 1   
    31   24   33 1   
    32   25   26 1   
    33   25   34 1   
    34   25   35 1   
    35   26   27 1   
    36   26   36 1   
    37   26   37 1   
    38   27   38 1   
    39   27   39 1   
    40   27   40 1   
    41   41   42 1   
    42   41   49 1   
    43   42   43 1   
    44   42   45 1   
    45   42   50 1   
    46   43   44 2   
    47   43   53 1   
    48   45   46 1   
    49   45   51 1   
    50   45   52 1   
    51   46   47 1   
    52   46   48 1   
    53   53   54 1   
    54   53   57 1   
    55   54   55 1   
    56   54   58 1   
    57   54   59 1   
    58   55   56 2   
    59   55   60 1   
    60   60   61 1   
    61   60   68 1   
    62   61   62 1   
    63   61   64 1   
    64   61   69 1   
    65   62   63 2   
    66   62   74 1   
    67   64   65 1   
    68   64   70 1   
    69   64   71 1   
    70   65   66 1   
    71   65   67 2   
    72   66   72 1   
    73   66   73 1   
    74   74   75 1   
    75   74   78 1   
    76   75   76 1   
    77   75   79 1   
    78   75   80 1   
    79   76   77 2   
    80   76   81 1   
    81   81   82 1   
    82   81   93 1   
    83   82   83 1   
    84   82   85 1   
    85   82   94 1   
    86   83   84 2   
    87   83  102 1   
    88   85   86 1   
    89   85   95 1   
    90   85   96 1   
    91   86   87 ar  
    92   86   88 ar  
    93   87   89 ar  
    94   87   97 1   
    95   88   90 ar  
    96   88   98 1   
    97   89   91 ar  
    98   89   99 1   
    99   90   91 ar  
   100   90  100 1   
   101   91   92 1   
   102   92  101 1   
   103  102  103 1   
   104  102  110 1   
   105  103  104 1   
   106  103  106 1   
   107  103  111 1   
   108  104  105 2   
   109  104  121 1   
   110  106  107 1   
   111  106  108 1   
   112  106  112 1   
   113  107  109 1   
   114  107  113 1   
   115  107  114 1   
   116  108  115 1   
   117  108  116 1   
   118  108  117 1   
   119  109  118 1   
   120  109  119 1   
   121  109  120 1   
   122  121  122 1   
   123  121  127 1   
   124  122  123 1   
   125  122  125 1   
   126  122  128 1   
   127  123  124 2   
   128  123  132 1   
   129  125  126 1   
   130  125  129 1   
   131  125  130 1   
   132  126  131 1   
   133  132  133 1   
   134  132  137 1   
   135  133  134 1   
   136  133  136 1   
   137  133  138 1   
   138  134  135 2   
   139  134  142 1   
   140  136  139 1   
   141  136  140 1   
   142  136  141 1   
   143  142  143 1   
   144  142  147 1   
   145  143  144 1   
   146  143  146 1   
   147  143  148 1   
   148  144  145 2   
   149  144  152 1   
   150  146  149 1   
   151  146  150 1   
   152  146  151 1   
   153  152  153 1   
   154  152  161 1   
   155  153  154 1   
   156  153  156 1   
   157  153  162 1   
   158  154  155 2   
   159  154  167 1   
   160  156  157 1   
   161  156  163 1   
   162  156  164 1   
   163  157  158 1   
   164  157  165 1   
   165  157  166 1   
   166  158  159 1   
   167  158  160 1   
   168  167  168 1   
   169  167  172 1   
   170  168  169 1   
   171  168  170 1   
   172  168  171 1   
   173  174  175 1   
   174  174  176 1   
@<TRIPOS>SUBSTRUCTURE
     1 MOL         1 TEMP              0 ****  ****    0 ROOT
