@<TRIPOS>MOLECULE
MOL
  189   185     1     0     0
SMALL
resp


@<TRIPOS>ATOM
      1 C1          0.1470   -3.5490    6.0260 c3        1 MOL     -0.257475
      2 C2          0.6510   -2.9730    4.6890 c         1 MOL      0.764763
      3 O1          0.5880   -1.7320    4.5320 o         1 MOL     -0.623356
      4 H1          0.8820   -4.2540    6.4170 hc        1 MOL      0.058775
      5 H2          0.0060   -2.7380    6.7410 hc        1 MOL      0.058775
      6 H3         -0.8000   -4.0630    5.8670 hc        1 MOL      0.058775
      7 N1          1.1400   -3.9010    3.8670 n         1 MOL     -0.575497
      8 C3          1.9580   -3.6120    2.6740 c3        1 MOL      0.023190
      9 C4          1.9580   -4.8100    1.7020 c         1 MOL      0.619084
     10 O2          2.2160   -5.9560    2.1350 o         1 MOL     -0.621626
     11 C5          3.4830   -3.2730    3.0420 c3        1 MOL     -0.156043
     12 C6          4.3440   -2.9600    1.8320 c         1 MOL      0.535193
     13 O3          5.5150   -3.4120    1.6940 o         1 MOL     -0.628225
     14 O4          3.7510   -2.2640    0.9600 o         1 MOL     -0.628225
     15 H4          1.1150   -4.8750    4.1370 hn        1 MOL      0.308254
     16 H5          1.4960   -2.7400    2.2090 h1        1 MOL      0.040778
     17 H6          3.9010   -4.1990    3.4220 hc        1 MOL      0.038502
     18 H7          3.6150   -2.5600    3.8570 hc        1 MOL      0.038502
     19 N2          1.7040   -4.6470    0.4530 n         1 MOL     -0.197695
     20 C7          1.5890   -5.6770   -0.5860 c3        1 MOL     -0.222669
     21 C8          2.5140   -5.4140   -1.7880 c         1 MOL      0.540769
     22 O5          2.4340   -6.1740   -2.7210 o         1 MOL     -0.566771
     23 C9          0.1070   -5.9970   -0.9100 c3        1 MOL      0.118955
     24 C10        -0.5270   -4.7340   -1.5940 c3        1 MOL      0.040551
     25 C11        -0.7100   -6.5050    0.3740 c3        1 MOL     -0.267125
     26 C12        -1.9120   -5.0530   -2.1250 c3        1 MOL     -0.249893
     27 H8          1.5190   -3.6880    0.1970 hn        1 MOL      0.234549
     28 H9          1.9550   -6.6110   -0.1570 h1        1 MOL      0.126102
     29 H10        -0.0540   -6.7430   -1.6850 hc        1 MOL      0.018181
     30 H11        -0.0160   -4.5440   -2.5390 hc        1 MOL      0.052752
     31 H12        -0.4330   -3.7780   -1.0790 hc        1 MOL      0.052752
     32 H13        -1.7830   -6.5800    0.1880 hc        1 MOL      0.060267
     33 H14        -0.3140   -7.4630    0.7190 hc        1 MOL      0.060267
     34 H15        -0.5940   -5.8330    1.2270 hc        1 MOL      0.060267
     35 H16        -2.6850   -5.1280   -1.3720 hc        1 MOL      0.063751
     36 H17        -2.1240   -4.2140   -2.7880 hc        1 MOL      0.063751
     37 H18        -1.9930   -5.9480   -2.7580 hc        1 MOL      0.063751
     38 N3          3.2320   -4.2890   -1.8060 n         1 MOL     -0.374326
     39 C13         3.9990   -3.7650   -3.0050 c3        1 MOL      0.021375
     40 C14         5.3130   -3.0490   -2.7380 c         1 MOL      0.357576
     41 O6          6.1850   -3.0090   -3.6700 o         1 MOL     -0.534523
     42 C15         3.1280   -2.9490   -3.8400 c3        1 MOL     -0.290430
     43 C16         2.4440   -1.7320   -3.1320 c         1 MOL      0.720633
     44 O7          2.8730   -1.3360   -1.9850 o         1 MOL     -0.673769
     45 O8          1.4620   -1.2540   -3.6650 o         1 MOL     -0.673769
     46 H19         3.1710   -3.6730   -1.0060 hn        1 MOL      0.204732
     47 H20         4.2080   -4.5720   -3.7070 h1        1 MOL      0.109271
     48 H21         2.3360   -3.5900   -4.2450 hc        1 MOL      0.090624
     49 H22         3.7670   -2.5450   -4.6210 hc        1 MOL      0.090624
     50 N4          5.5640   -2.5780   -1.5400 n         1 MOL     -0.209548
     51 C17         6.9190   -2.1910   -1.0750 c3        1 MOL      0.152797
     52 C18         7.4300   -0.8020   -1.6520 c         1 MOL      0.263977
     53 O9          8.5490   -0.6950   -2.1400 o         1 MOL     -0.548942
     54 H23         4.7530   -2.3860   -0.9680 hn        1 MOL      0.180342
     55 H24         7.6910   -2.9540   -1.1710 h1        1 MOL      0.014610
     56 H25         6.6900   -2.0300   -0.0250 h1        1 MOL      0.014610
     57 N5          6.4800    0.1180   -1.8750 n         1 MOL      0.002797
     58 C19         6.6910    1.4280   -2.5250 c3        1 MOL     -0.036875
     59 C20         7.0430    2.5220   -1.4500 c         1 MOL      0.373172
     60 O10         7.0840    3.7160   -1.7590 o         1 MOL     -0.517989
     61 C21         5.4380    1.8410   -3.3510 c3        1 MOL     -0.394757
     62 C22         4.1540    1.7430   -2.5610 c         1 MOL      0.863890
     63 O11         4.0690    1.3970   -1.3780 o         1 MOL     -0.742811
     64 O12         3.0920    2.1630   -3.1400 o         1 MOL     -0.742811
     65 H26         5.5230   -0.0050   -1.5900 hn        1 MOL      0.121176
     66 H27         7.5260    1.3450   -3.2170 h1        1 MOL      0.111237
     67 H28         5.2560    1.0790   -4.1090 hc        1 MOL      0.121701
     68 H29         5.6300    2.8480   -3.7060 hc        1 MOL      0.121701
     69 N6          7.0930    2.1710   -0.1680 n         1 MOL     -0.260788
     70 C23         7.3020    3.1090    0.9570 c3        1 MOL     -0.216394
     71 C24         6.0770    4.0250    1.2560 c         1 MOL      0.472900
     72 O13         6.2670    4.9910    1.9730 o         1 MOL     -0.557080
     73 H30         6.9610    1.1940    0.0530 hn        1 MOL      0.214791
     74 H31         8.2090    3.6770    0.7680 h1        1 MOL      0.113544
     75 H32         7.4510    2.4320    1.7950 h1        1 MOL      0.113544
     76 N7          4.8830    3.7410    0.6860 n         1 MOL     -0.034946
     77 C25         3.6630    4.3190    1.2010 c3        1 MOL     -0.056954
     78 C26         2.6610    3.2990    1.6680 c         1 MOL      0.462598
     79 O14         2.8940    2.1160    1.4780 o         1 MOL     -0.463385
     80 C27         3.0020    5.2640    0.1680 c3        1 MOL     -0.035375
     81 C28         3.8840    6.5100   -0.2010 c3        1 MOL     -0.209960
     82 C29         3.0260    7.4210   -1.0740 c         1 MOL      0.594583
     83 N8          2.9810    7.2240   -2.4310 n         1 MOL     -0.813003
     84 O15         2.3190    8.3210   -0.6450 o         1 MOL     -0.564132
     85 H33         4.6640    2.8940    0.1840 hn        1 MOL      0.138691
     86 H34         3.9190    4.9670    2.0410 h1        1 MOL      0.065642
     87 H35         2.0360    5.6600    0.5080 hc        1 MOL      0.069403
     88 H36         2.9270    4.6520   -0.7300 hc        1 MOL      0.069403
     89 H37         4.7630    6.1090   -0.7020 hc        1 MOL      0.081077
     90 H38         4.2260    7.0120    0.7080 hc        1 MOL      0.081077
     91 H39         3.5000    6.4990   -2.9110 hn        1 MOL      0.373774
     92 H40         2.3850    7.9020   -2.8670 hn        1 MOL      0.373774
     93 N9          1.6010    3.7220    2.3420 n         1 MOL     -0.664868
     94 C30         0.3930    2.8020    2.4110 c3        1 MOL      0.363805
     95 C31        -0.8130    3.3570    1.5450 c         1 MOL      0.306845
     96 O16        -1.0680    4.5310    1.5830 o         1 MOL     -0.559316
     97 C32         0.0330    2.5620    3.8490 c3        1 MOL      0.333003
     98 C33        -0.3780    3.8370    4.5920 c3        1 MOL     -0.281900
     99 C34        -0.9500    1.3470    4.0450 c3        1 MOL     -0.281900
    100 H41         1.4490    4.7110    2.4830 hn        1 MOL      0.353927
    101 H42         0.5880    1.8480    1.9150 h1        1 MOL     -0.053951
    102 H43         0.8710    2.1570    4.4090 hc        1 MOL     -0.063783
    103 H44         0.2710    4.6700    4.3740 hc        1 MOL      0.044204
    104 H45        -1.3520    4.2370    4.3170 hc        1 MOL      0.044204
    105 H46        -0.4770    3.6060    5.6550 hc        1 MOL      0.044204
    106 H47        -0.9300    1.0840    5.0970 hc        1 MOL      0.044204
    107 H48        -1.9510    1.5890    3.6900 hc        1 MOL      0.044204
    108 H49        -0.4690    0.5500    3.4850 hc        1 MOL      0.044204
    109 N10        -1.4460    2.4680    0.8000 n         1 MOL     -0.089160
    110 C35        -2.5250    2.7080   -0.1720 c3        1 MOL      0.091121
    111 C36        -3.9040    2.3930    0.5120 c         1 MOL      0.249589
    112 O17        -3.9110    1.4790    1.3380 o         1 MOL     -0.303977
    113 C37        -2.2590    2.0860   -1.5410 c3        1 MOL     -0.202918
    114 C38        -3.0320    0.8290   -1.8160 c         1 MOL      0.603011
    115 N11        -2.3670   -0.2820   -1.9510 n         1 MOL     -0.620614
    116 O18        -4.2520    0.8220   -1.9840 o         1 MOL     -0.585969
    117 H50        -1.1870    1.5040    0.9330 hn        1 MOL      0.162842
    118 H51        -2.5270    3.7870   -0.3140 h1        1 MOL      0.052365
    119 H52        -1.1970    1.8880   -1.6120 hc        1 MOL      0.076341
    120 H53        -2.5810    2.8870   -2.2100 hc        1 MOL      0.076341
    121 H54        -1.4080   -0.3830   -1.6690 hn        1 MOL      0.343997
    122 H55        -2.9830   -1.0940   -2.0050 hn        1 MOL      0.343997
    123 N12        -5.0080    3.0620    0.1890 n         1 MOL     -0.297659
    124 C39        -6.2890    2.8320    0.7910 c3        1 MOL     -0.011927
    125 C40        -6.8130    1.4090    0.8560 c         1 MOL      0.390360
    126 O19        -7.5880    1.1130    1.7380 o         1 MOL     -0.580468
    127 C41        -7.3130    3.6290    0.0300 c3        1 MOL     -0.115832
    128 C42        -7.7900    3.1240   -1.3420 ca        1 MOL     -0.008815
    129 C43        -9.0140    2.4240   -1.6060 ca        1 MOL     -0.130801
    130 C44        -6.9660    3.4270   -2.4960 ca        1 MOL     -0.130801
    131 C45        -9.3830    2.0580   -2.8880 ca        1 MOL     -0.352805
    132 C46        -7.4420    3.0840   -3.8140 ca        1 MOL     -0.352805
    133 C47        -8.5820    2.3020   -3.9810 ca        1 MOL      0.418702
    134 O20        -8.7910    1.8220   -5.1930 oh        1 MOL     -0.446314
    135 H56        -4.9140    3.8830   -0.3930 hn        1 MOL      0.240241
    136 H57        -6.1740    3.2150    1.8050 h1        1 MOL      0.084918
    137 H58        -7.1650    4.6990   -0.0530 hc        1 MOL      0.057851
    138 H59        -8.1900    3.6920    0.6790 hc        1 MOL      0.057851
    139 H60        -9.6480    2.0310   -0.8330 ha        1 MOL      0.134589
    140 H61        -6.0610    4.0160   -2.4220 ha        1 MOL      0.134589
    141 H62       -10.2970    1.4940   -3.0520 ha        1 MOL      0.168219
    142 H63        -6.7300    3.2690   -4.6050 ha        1 MOL      0.168219
    143 H64        -9.5850    1.2890   -5.0800 ho        1 MOL      0.344326
    144 N13        -6.4080    0.5100    0.0210 n         1 MOL      0.052880
    145 C48        -6.8220   -0.8530    0.0590 c3        1 MOL     -0.191163
    146 C49        -5.8900   -1.6850    1.0180 c         1 MOL      0.436606
    147 O21        -6.3530   -2.7280    1.4810 o         1 MOL     -0.515670
    148 C50        -6.7170   -1.3800   -1.3700 c3        1 MOL     -0.087137
    149 C51        -7.2520   -2.7740   -1.4210 c3        1 MOL     -0.342365
    150 C52        -7.4110   -3.2020   -2.9030 c         1 MOL      0.634897
    151 O22        -7.9390   -2.3990   -3.7350 o         1 MOL     -0.714301
    152 O23        -6.7990   -4.2110   -3.3010 o         1 MOL     -0.714301
    153 H65        -5.8520    0.8220   -0.7640 hn        1 MOL      0.224813
    154 H66        -7.8110   -0.8980    0.5340 h1        1 MOL      0.121776
    155 H67        -5.6640   -1.4330   -1.6250 hc        1 MOL      0.113983
    156 H68        -7.1310   -0.6940   -2.1120 hc        1 MOL      0.113983
    157 H69        -8.1360   -3.0330   -0.8300 hc        1 MOL      0.081081
    158 H70        -6.5200   -3.4670   -0.9990 hc        1 MOL      0.081081
    159 N14        -4.6380   -1.2840    1.2580 n         1 MOL     -0.180334
    160 C53        -3.7600   -1.7570    2.3310 c3        1 MOL     -0.024561
    161 C54        -4.1950   -1.2550    3.7210 c         1 MOL      0.419297
    162 O24        -4.1900   -2.0570    4.6430 o         1 MOL     -0.544076
    163 C55        -2.3500   -1.2810    1.9950 c3        1 MOL      0.149341
    164 C56        -1.5920   -1.9850    0.8710 c3        1 MOL     -0.146821
    165 C57        -0.2530   -1.3260    0.5740 c         1 MOL      0.882406
    166 O25         0.7230   -2.0590    0.3310 o         1 MOL     -0.800418
    167 O26        -0.0820   -0.0880    0.5680 o         1 MOL     -0.800418
    168 H71        -4.3670   -0.3960    0.8420 hn        1 MOL     -0.018602
    169 H72        -3.7550   -2.8480    2.4300 h1        1 MOL      0.079717
    170 H73        -1.8020   -1.3940    2.9300 hc        1 MOL     -0.008393
    171 H74        -2.3860   -0.2300    1.6910 hc        1 MOL     -0.008393
    172 H75        -2.2060   -1.9910   -0.0270 hc        1 MOL      0.001403
    173 H76        -1.4480   -2.9790    1.2920 hc        1 MOL      0.001403
    174 N15        -4.6320    0.0140    3.7680 n         1 MOL     -0.075609
    175 C58        -5.1700    0.7420    4.9660 c3        1 MOL     -0.280771
    176 H77        -6.0480    1.3180    4.6760 h1        1 MOL      0.097429
    177 H78        -5.4470    0.0210    5.7350 h1        1 MOL      0.097429
    178 H79        -4.4070    1.4150    5.3560 h1        1 MOL      0.097429
    179 H80        -4.8990    0.4160    2.8850 hn        1 MOL      0.152815
    180 Ca1         2.5770   -0.1620    0.1900 Ca        1 MOL      1.736859
    181 O27         2.0450   -0.1260    2.9440 oh        1 MOL     -0.933442
    182 H81         1.3680   -0.7370    3.2350 ho        1 MOL      0.445934
    183 H82         2.4160    0.2220    3.7470 ho        1 MOL      0.445934
    184 O28         1.2350    0.8240   -1.9470 oh        1 MOL     -0.933442
    185 H83         1.8080    1.5110   -2.2890 ho        1 MOL      0.445934
    186 H84         1.3670    0.0780   -2.5260 ho        1 MOL      0.445934
    187 O29         5.2130    0.2660    1.2300 oh        1 MOL     -0.933442
    188 H85         5.9550   -0.3280    1.1390 ho        1 MOL      0.445934
    189 H86         5.2170    0.5190    2.1510 ho        1 MOL      0.445934
@<TRIPOS>BOND
     1    1    2 1   
     2    1    4 1   
     3    1    5 1   
     4    1    6 1   
     5    2    3 2   
     6    2    7 1   
     7    7    8 1   
     8    7   15 1   
     9    8    9 1   
    10    8   11 1   
    11    8   16 1   
    12    9   10 2   
    13    9   19 1   
    14   11   12 1   
    15   11   17 1   
    16   11   18 1   
    17   12   13 1   
    18   12   14 1   
    19   19   20 1   
    20   19   27 1   
    21   20   21 1   
    22   20   23 1   
    23   20   28 1   
    24   21   22 2   
    25   21   38 1   
    26   23   24 1   
    27   23   25 1   
    28   23   29 1   
    29   24   26 1   
    30   24   30 1   
    31   24   31 1   
    32   25   32 1   
    33   25   33 1   
    34   25   34 1   
    35   26   35 1   
    36   26   36 1   
    37   26   37 1   
    38   38   39 1   
    39   38   46 1   
    40   39   40 1   
    41   39   42 1   
    42   39   47 1   
    43   40   41 2   
    44   40   50 1   
    45   42   43 1   
    46   42   48 1   
    47   42   49 1   
    48   43   44 1   
    49   43   45 1   
    50   50   51 1   
    51   50   54 1   
    52   51   52 1   
    53   51   55 1   
    54   51   56 1   
    55   52   53 2   
    56   52   57 1   
    57   57   58 1   
    58   57   65 1   
    59   58   59 1   
    60   58   61 1   
    61   58   66 1   
    62   59   60 2   
    63   59   69 1   
    64   61   62 1   
    65   61   67 1   
    66   61   68 1   
    67   62   63 1   
    68   62   64 1   
    69   69   70 1   
    70   69   73 1   
    71   70   71 1   
    72   70   74 1   
    73   70   75 1   
    74   71   72 2   
    75   71   76 1   
    76   76   77 1   
    77   76   85 1   
    78   77   78 1   
    79   77   80 1   
    80   77   86 1   
    81   78   79 2   
    82   78   93 1   
    83   80   81 1   
    84   80   87 1   
    85   80   88 1   
    86   81   82 1   
    87   81   89 1   
    88   81   90 1   
    89   82   83 1   
    90   82   84 2   
    91   83   91 1   
    92   83   92 1   
    93   93   94 1   
    94   93  100 1   
    95   94   95 1   
    96   94   97 1   
    97   94  101 1   
    98   95   96 2   
    99   95  109 1   
   100   97   98 1   
   101   97   99 1   
   102   97  102 1   
   103   98  103 1   
   104   98  104 1   
   105   98  105 1   
   106   99  106 1   
   107   99  107 1   
   108   99  108 1   
   109  109  110 1   
   110  109  117 1   
   111  110  111 1   
   112  110  113 1   
   113  110  118 1   
   114  111  112 2   
   115  111  123 1   
   116  113  114 1   
   117  113  119 1   
   118  113  120 1   
   119  114  115 1   
   120  114  116 2   
   121  115  121 1   
   122  115  122 1   
   123  123  124 1   
   124  123  135 1   
   125  124  125 1   
   126  124  127 1   
   127  124  136 1   
   128  125  126 2   
   129  125  144 1   
   130  127  128 1   
   131  127  137 1   
   132  127  138 1   
   133  128  129 ar  
   134  128  130 ar  
   135  129  131 ar  
   136  129  139 1   
   137  130  132 ar  
   138  130  140 1   
   139  131  133 ar  
   140  131  141 1   
   141  132  133 ar  
   142  132  142 1   
   143  133  134 1   
   144  134  143 1   
   145  144  145 1   
   146  144  153 1   
   147  145  146 1   
   148  145  148 1   
   149  145  154 1   
   150  146  147 2   
   151  146  159 1   
   152  148  149 1   
   153  148  155 1   
   154  148  156 1   
   155  149  150 1   
   156  149  157 1   
   157  149  158 1   
   158  150  151 1   
   159  150  152 1   
   160  159  160 1   
   161  159  168 1   
   162  160  161 1   
   163  160  163 1   
   164  160  169 1   
   165  161  162 2   
   166  161  174 1   
   167  163  164 1   
   168  163  170 1   
   169  163  171 1   
   170  164  165 1   
   171  164  172 1   
   172  164  173 1   
   173  165  166 1   
   174  165  167 1   
   175  174  175 1   
   176  174  179 1   
   177  175  176 1   
   178  175  177 1   
   179  175  178 1   
   180  181  182 1   
   181  181  183 1   
   182  184  185 1   
   183  184  186 1   
   184  187  188 1   
   185  187  189 1   
@<TRIPOS>SUBSTRUCTURE
     1 MOL         1 TEMP              0 ****  ****    0 ROOT
