@<TRIPOS>MOLECULE
MOL
  175   173     1     0     0
SMALL
resp


@<TRIPOS>ATOM
      1 C1          0.5070    4.2890    5.2250 c3        1 MOL     -0.406895
      2 C2          0.0970    4.2800    3.7300 c         1 MOL      0.775986
      3 O1          0.9190    3.9790    2.8670 o         1 MOL     -0.575496
      4 H1         -0.0520    5.0640    5.7500 hc        1 MOL      0.095787
      5 H2          0.2870    3.3180    5.6690 hc        1 MOL      0.095787
      6 H3          1.5750    4.4930    5.3080 hc        1 MOL      0.095787
      7 N1         -1.2280    4.3940    3.4830 n         1 MOL     -0.724684
      8 C3         -1.8040    3.9180    2.2390 c3        1 MOL      0.252893
      9 C4         -1.9130    5.0740    1.2800 c         1 MOL      0.657846
     10 O2         -1.9020    6.2210    1.6840 o         1 MOL     -0.568036
     11 C5         -3.2150    3.3150    2.6280 c3        1 MOL     -0.305041
     12 C6         -3.8840    2.4710    1.5860 c         1 MOL      0.877079
     13 O3         -4.9490    1.9250    1.9050 o         1 MOL     -0.729042
     14 O4         -3.3990    2.2540    0.4620 o         1 MOL     -0.729042
     15 H4         -1.8550    4.3350    4.2700 hn        1 MOL      0.334494
     16 H5         -1.1510    3.1690    1.8020 h1        1 MOL      0.094995
     17 H6         -3.9350    4.0030    3.0480 hc        1 MOL      0.056633
     18 H7         -2.9450    2.5880    3.4030 hc        1 MOL      0.056633
     19 N2         -2.0260    4.7710   -0.0230 n         1 MOL     -0.755487
     20 C7         -2.6260    5.6430   -0.9800 c3        1 MOL      0.438188
     21 C8         -3.5280    4.9850   -2.0610 c         1 MOL      0.475045
     22 O5         -3.6000    5.4190   -3.2100 o         1 MOL     -0.548801
     23 C9         -1.4860    6.4170   -1.5790 c3        1 MOL     -0.388558
     24 H8         -1.9640    3.7990   -0.2740 hn        1 MOL      0.452696
     25 H9         -3.2770    6.2470   -0.3530 h1        1 MOL     -0.036946
     26 H10        -0.9130    6.8540   -0.7570 hc        1 MOL      0.090523
     27 H11        -0.8110    5.8320   -2.2100 hc        1 MOL      0.090523
     28 H12        -1.8980    7.2740   -2.0990 hc        1 MOL      0.090523
     29 N3         -4.2610    3.9190   -1.7310 n         1 MOL     -0.441354
     30 C10        -5.1230    3.2750   -2.7230 c3        1 MOL      0.073550
     31 C11        -6.2890    2.4610   -2.2640 c         1 MOL      0.346206
     32 O6         -7.2570    2.1150   -3.0190 o         1 MOL     -0.534607
     33 C12        -4.2480    2.3630   -3.7100 c3        1 MOL     -0.180789
     34 C13        -3.4090    1.4040   -2.8650 c         1 MOL      0.607675
     35 O7         -3.9810    0.7310   -2.0100 o         1 MOL     -0.663249
     36 O8         -2.1520    1.5320   -2.9510 o         1 MOL     -0.663249
     37 H13        -4.1620    3.5090   -0.8090 hn        1 MOL      0.206823
     38 H14        -5.4940    4.0710   -3.3750 h1        1 MOL      0.088790
     39 H15        -3.6060    3.0160   -4.3020 hc        1 MOL      0.064332
     40 H16        -4.9640    1.7610   -4.2770 hc        1 MOL      0.064332
     41 N4         -6.2740    2.1380   -0.9710 n         1 MOL     -0.168778
     42 C14        -7.3020    1.3530   -0.3140 c3        1 MOL     -0.307166
     43 C15        -7.4150   -0.0950   -0.8060 c         1 MOL      0.508033
     44 O9         -8.4190   -0.7930   -0.6350 o         1 MOL     -0.607712
     45 H17        -5.5440    2.4680   -0.3480 hn        1 MOL      0.174122
     46 H18        -8.2990    1.7740   -0.4150 h1        1 MOL      0.145107
     47 H19        -7.1720    1.4070    0.7730 h1        1 MOL      0.145107
     48 N5         -6.3220   -0.6190   -1.3720 n         1 MOL     -0.234603
     49 C16        -6.2140   -1.9520   -1.8670 c3        1 MOL     -0.119919
     50 C17        -6.2360   -3.0910   -0.8360 c         1 MOL      0.466096
     51 O10        -6.0930   -4.2370   -1.2450 o         1 MOL     -0.508417
     52 C18        -5.1120   -2.1700   -2.9510 c3        1 MOL     -0.019605
     53 C19        -3.7450   -2.4040   -2.3520 c         1 MOL      0.540294
     54 N6         -2.8010   -2.6210   -3.1960 n         1 MOL     -0.635909
     55 O11        -3.4940   -2.3900   -1.1480 o         1 MOL     -0.628650
     56 H20        -5.6020    0.0580   -1.5820 hn        1 MOL      0.335436
     57 H21        -7.1900   -2.0670   -2.3450 h1        1 MOL      0.110210
     58 H22        -5.0100   -1.2340   -3.4900 hc        1 MOL      0.023219
     59 H23        -5.3490   -2.9010   -3.7060 hc        1 MOL      0.023219
     60 H24        -2.9480   -2.5520   -4.1920 hn        1 MOL      0.341701
     61 H25        -1.8540   -2.7990   -2.8750 hn        1 MOL      0.341701
     62 N7         -6.4210   -2.7930    0.4780 n         1 MOL     -0.206600
     63 C20        -6.3440   -3.8310    1.4950 c3        1 MOL     -0.223343
     64 C21        -5.0480   -4.5820    1.6720 c         1 MOL      0.508231
     65 O12        -5.1930   -5.7010    2.2480 o         1 MOL     -0.581440
     66 H26        -6.5330   -1.8240    0.7210 hn        1 MOL      0.243562
     67 H27        -7.0800   -4.6090    1.3040 h1        1 MOL      0.102616
     68 H28        -6.5190   -3.3900    2.4690 h1        1 MOL      0.102616
     69 N8         -3.9060   -4.0510    1.2320 n         1 MOL     -0.145460
     70 C22        -2.5660   -4.6160    1.4970 c3        1 MOL     -0.102711
     71 C23        -1.6040   -3.3770    1.5070 c         1 MOL      0.390622
     72 O13        -1.8870   -2.2520    1.0660 o         1 MOL     -0.528930
     73 C24        -2.1100   -5.4710    0.3040 c3        1 MOL      0.553446
     74 C25        -2.9430   -6.7460    0.2090 c3        1 MOL     -0.403819
     75 O14        -2.2330   -4.8390   -0.9970 oh        1 MOL     -0.680892
     76 H29        -3.9680   -3.2050    0.6870 hn        1 MOL      0.072669
     77 H30        -2.5620   -5.1690    2.4400 h1        1 MOL      0.077255
     78 H31        -1.1030   -5.8090    0.5470 h1        1 MOL     -0.048000
     79 H32        -2.5820   -3.9480   -0.9530 ho        1 MOL      0.488926
     80 H33        -3.8730   -6.4610   -0.2610 hc        1 MOL      0.086611
     81 H34        -2.5310   -7.5320   -0.4240 hc        1 MOL      0.086611
     82 H35        -3.0860   -7.1070    1.2290 hc        1 MOL      0.086611
     83 N9         -0.4360   -3.6840    2.0760 n         1 MOL     -0.442053
     84 C26         0.6960   -2.7420    2.1040 c3        1 MOL      0.033298
     85 C27         1.6070   -3.0980    0.9340 c         1 MOL      0.441450
     86 O15         1.7360   -4.2790    0.5800 o         1 MOL     -0.567421
     87 C28         1.4560   -2.7620    3.4800 c3        1 MOL      0.030957
     88 C29         0.5370   -1.8060    4.3220 c3        1 MOL      0.323936
     89 C30         2.9300   -2.3410    3.5210 c3        1 MOL     -0.268906
     90 C31         1.0590   -1.6240    5.7820 c3        1 MOL     -0.310071
     91 H36        -0.3130   -4.6320    2.3970 hn        1 MOL      0.270644
     92 H37         0.2850   -1.7440    1.9140 h1        1 MOL      0.189800
     93 H38         1.3900   -3.7440    3.9390 hc        1 MOL      0.015116
     94 H39        -0.4010   -2.3480    4.4790 hc        1 MOL     -0.091885
     95 H40         0.2560   -0.9040    3.7880 hc        1 MOL     -0.091885
     96 H41         2.9890   -1.2620    3.6820 hc        1 MOL      0.044010
     97 H42         3.4100   -2.7820    4.3910 hc        1 MOL      0.044010
     98 H43         3.4290   -2.6580    2.6140 hc        1 MOL      0.044010
     99 H44         0.4700   -0.8610    6.2820 hc        1 MOL      0.065133
    100 H45         0.9680   -2.6260    6.1840 hc        1 MOL      0.065133
    101 H46         2.0760   -1.2470    5.8960 hc        1 MOL      0.065133
    102 N10         2.0570   -2.0250    0.2520 n         1 MOL     -0.054561
    103 C32         2.7950   -2.0690   -0.9650 c3        1 MOL      0.107435
    104 C33         4.2630   -1.5410   -0.7210 c         1 MOL      0.173864
    105 O16         4.6300   -0.8750    0.2630 o         1 MOL     -0.226461
    106 C34         2.0660   -1.2890   -2.0350 c3        1 MOL     -0.053230
    107 C35         0.6140   -1.6900   -2.3350 c         1 MOL      0.519608
    108 O17        -0.3290   -1.3670   -1.5310 o         1 MOL     -0.645383
    109 O18         0.3780   -2.4000   -3.3430 o         1 MOL     -0.645383
    110 H47         1.9390   -1.1440    0.7200 hn        1 MOL      0.170300
    111 H48         2.9150   -3.1130   -1.2660 h1        1 MOL      0.030989
    112 H49         2.6100   -1.3320   -2.9780 hc        1 MOL      0.013846
    113 H50         2.0400   -0.2520   -1.6890 hc        1 MOL      0.013846
    114 N11         5.1230   -1.8500   -1.6390 n         1 MOL     -0.378449
    115 C36         6.6090   -1.5940   -1.4290 c3        1 MOL      0.146152
    116 C37         6.9670   -0.0870   -1.0840 c         1 MOL      0.457733
    117 O19         7.6640    0.1020   -0.1050 o         1 MOL     -0.507026
    118 C38         7.4020   -2.0130   -2.6250 c3        1 MOL     -0.130291
    119 C39         8.8910   -1.8100   -2.4810 ca        1 MOL      0.243652
    120 C40         9.5580   -2.2360   -1.3450 ca        1 MOL     -0.347298
    121 C41         9.6810   -1.1070   -3.4710 ca        1 MOL     -0.347298
    122 C42        10.9070   -1.9240   -1.1220 ca        1 MOL      0.051492
    123 C43        11.0250   -0.7900   -3.2070 ca        1 MOL      0.051492
    124 C44        11.6820   -1.2320   -2.0850 ca        1 MOL     -0.255859
    125 H51         4.8410   -2.4200   -2.4160 hn        1 MOL      0.287892
    126 H52         6.9360   -2.2060   -0.5820 h1        1 MOL      0.075214
    127 H53         7.0740   -1.4390   -3.4960 hc        1 MOL      0.040570
    128 H54         7.2700   -3.0620   -2.8760 hc        1 MOL      0.040570
    129 H55         9.1570   -2.8420   -0.5460 ha        1 MOL      0.153453
    130 H56         9.2320   -0.7960   -4.3990 ha        1 MOL      0.153453
    131 H57        11.3810   -2.2080   -0.1970 ha        1 MOL      0.075782
    132 H58        11.5920   -0.2420   -3.9440 ha        1 MOL      0.075782
    133 H59        12.7280   -1.0620   -1.8850 ha        1 MOL      0.130470
    134 N12         6.3610    0.9410   -1.6500 n         1 MOL     -0.178792
    135 C45         6.4330    2.3570   -1.1880 c3        1 MOL      0.029904
    136 C46         5.8940    2.5660    0.2220 c         1 MOL      0.435409
    137 O20         6.4850    3.2660    1.0330 o         1 MOL     -0.517982
    138 C47         5.8560    3.2350   -2.2930 c3        1 MOL     -0.148983
    139 C48         4.9330    2.2580   -2.9930 c3        1 MOL      0.014430
    140 C49         5.6050    0.9050   -2.9080 c3        1 MOL      0.019815
    141 H60         7.4910    2.6130   -1.1200 h1        1 MOL      0.048503
    142 H61         5.4400    4.1620   -1.9000 hc        1 MOL      0.071174
    143 H62         6.6710    3.5100   -2.9660 hc        1 MOL      0.071174
    144 H63         3.9550    2.2000   -2.5180 hc        1 MOL      0.019642
    145 H64         4.8030    2.5250   -4.0470 hc        1 MOL      0.019642
    146 H65         4.8360    0.1320   -2.9410 h1        1 MOL      0.016497
    147 H66         6.2790    0.7320   -3.7520 h1        1 MOL      0.016497
    148 N13         4.8090    1.8190    0.5480 n         1 MOL     -0.232319
    149 C50         4.0220    1.8990    1.8520 c3        1 MOL     -0.291476
    150 C51         4.9710    1.3760    2.9230 c         1 MOL      0.554419
    151 O21         5.0470    1.9840    4.0160 o         1 MOL     -0.558487
    152 C52         2.6800    1.1870    1.7420 c3        1 MOL     -0.010180
    153 C53         1.8960    1.7790    0.5220 c3        1 MOL     -0.074722
    154 C54         0.4420    1.3280    0.4610 c         1 MOL      0.615539
    155 O22         0.0660    0.3470    1.1440 o         1 MOL     -0.739603
    156 O23        -0.4150    1.8680   -0.2570 o         1 MOL     -0.739603
    157 H67         4.5770    1.0850   -0.1050 hn        1 MOL      0.208175
    158 H68         3.9450    2.9570    2.0800 h1        1 MOL      0.177648
    159 H69         2.1100    1.3690    2.6540 hc        1 MOL      0.050813
    160 H70         2.9420    0.1380    1.5860 hc        1 MOL      0.050813
    161 H71         2.3830    1.4970   -0.4040 hc        1 MOL      0.054581
    162 H72         1.9080    2.8730    0.5340 hc        1 MOL      0.054581
    163 N14         5.7420    0.2500    2.6290 n         1 MOL     -0.049696
    164 C55         6.7290   -0.3110    3.5500 c3        1 MOL     -0.431942
    165 H73         6.9840   -1.3240    3.2370 h1        1 MOL      0.135339
    166 H74         7.6270    0.3070    3.5410 h1        1 MOL      0.135339
    167 H75         6.3140   -0.3360    4.5570 h1        1 MOL      0.135339
    168 H76         5.6130   -0.2250    1.7450 hn        1 MOL      0.062087
    169 Ca1        -2.2270    0.0760   -0.3720 Ca        1 MOL      1.695589
    170 O24        -2.1430   -0.0030    2.6690 oh        1 MOL     -0.760985
    171 H77        -1.2270   -0.2160    2.4830 ho        1 MOL      0.371531
    172 H78        -2.2030   -0.0610    3.6210 ho        1 MOL      0.371531
    173 O25        -4.5300   -0.5120    1.2160 oh        1 MOL     -0.760985
    174 H79        -3.8050   -0.6470    1.8310 ho        1 MOL      0.371531
    175 H80        -4.7990    0.3980    1.3560 ho        1 MOL      0.371531
@<TRIPOS>BOND
     1    1    2 1   
     2    1    4 1   
     3    1    5 1   
     4    1    6 1   
     5    2    3 2   
     6    2    7 1   
     7    7    8 1   
     8    7   15 1   
     9    8    9 1   
    10    8   11 1   
    11    8   16 1   
    12    9   10 2   
    13    9   19 1   
    14   11   12 1   
    15   11   17 1   
    16   11   18 1   
    17   12   13 1   
    18   12   14 1   
    19   19   20 1   
    20   19   24 1   
    21   20   21 1   
    22   20   23 1   
    23   20   25 1   
    24   21   22 2   
    25   21   29 1   
    26   23   26 1   
    27   23   27 1   
    28   23   28 1   
    29   29   30 1   
    30   29   37 1   
    31   30   31 1   
    32   30   33 1   
    33   30   38 1   
    34   31   32 2   
    35   31   41 1   
    36   33   34 1   
    37   33   39 1   
    38   33   40 1   
    39   34   35 1   
    40   34   36 1   
    41   41   42 1   
    42   41   45 1   
    43   42   43 1   
    44   42   46 1   
    45   42   47 1   
    46   43   44 2   
    47   43   48 1   
    48   48   49 1   
    49   48   56 1   
    50   49   50 1   
    51   49   52 1   
    52   49   57 1   
    53   50   51 2   
    54   50   62 1   
    55   52   53 1   
    56   52   58 1   
    57   52   59 1   
    58   53   54 1   
    59   53   55 2   
    60   54   60 1   
    61   54   61 1   
    62   62   63 1   
    63   62   66 1   
    64   63   64 1   
    65   63   67 1   
    66   63   68 1   
    67   64   65 2   
    68   64   69 1   
    69   69   70 1   
    70   69   76 1   
    71   70   71 1   
    72   70   73 1   
    73   70   77 1   
    74   71   72 2   
    75   71   83 1   
    76   73   74 1   
    77   73   75 1   
    78   73   78 1   
    79   74   80 1   
    80   74   81 1   
    81   74   82 1   
    82   75   79 1   
    83   83   84 1   
    84   83   91 1   
    85   84   85 1   
    86   84   87 1   
    87   84   92 1   
    88   85   86 2   
    89   85  102 1   
    90   87   88 1   
    91   87   89 1   
    92   87   93 1   
    93   88   90 1   
    94   88   94 1   
    95   88   95 1   
    96   89   96 1   
    97   89   97 1   
    98   89   98 1   
    99   90   99 1   
   100   90  100 1   
   101   90  101 1   
   102  102  103 1   
   103  102  110 1   
   104  103  104 1   
   105  103  106 1   
   106  103  111 1   
   107  104  105 2   
   108  104  114 1   
   109  106  107 1   
   110  106  112 1   
   111  106  113 1   
   112  107  108 1   
   113  107  109 1   
   114  114  115 1   
   115  114  125 1   
   116  115  116 1   
   117  115  118 1   
   118  115  126 1   
   119  116  117 2   
   120  116  134 1   
   121  118  119 1   
   122  118  127 1   
   123  118  128 1   
   124  119  120 ar  
   125  119  121 ar  
   126  120  122 ar  
   127  120  129 1   
   128  121  123 ar  
   129  121  130 1   
   130  122  124 ar  
   131  122  131 1   
   132  123  124 ar  
   133  123  132 1   
   134  124  133 1   
   135  134  135 1   
   136  134  140 1   
   137  135  136 1   
   138  135  138 1   
   139  135  141 1   
   140  136  137 2   
   141  136  148 1   
   142  138  139 1   
   143  138  142 1   
   144  138  143 1   
   145  139  140 1   
   146  139  144 1   
   147  139  145 1   
   148  140  146 1   
   149  140  147 1   
   150  148  149 1   
   151  148  157 1   
   152  149  150 1   
   153  149  152 1   
   154  149  158 1   
   155  150  151 2   
   156  150  163 1   
   157  152  153 1   
   158  152  159 1   
   159  152  160 1   
   160  153  154 1   
   161  153  161 1   
   162  153  162 1   
   163  154  155 1   
   164  154  156 1   
   165  163  164 1   
   166  163  168 1   
   167  164  165 1   
   168  164  166 1   
   169  164  167 1   
   170  170  171 1   
   171  170  172 1   
   172  173  174 1   
   173  173  175 1   
@<TRIPOS>SUBSTRUCTURE
     1 MOL         1 TEMP              0 ****  ****    0 ROOT
