@<TRIPOS>MOLECULE
MOL
  179   176     1     0     0
SMALL
resp


@<TRIPOS>ATOM
      1 C1          2.6790    2.6360    5.0420 c3        1 MOL     -0.409459
      2 C2          1.9950    2.3340    3.6730 c         1 MOL      0.688133
      3 O1          2.6500    2.1950    2.6440 o         1 MOL     -0.559356
      4 H1          3.5830    2.0350    5.1360 hc        1 MOL      0.104698
      5 H2          2.9390    3.6930    5.0940 hc        1 MOL      0.104698
      6 H3          1.9930    2.3880    5.8530 hc        1 MOL      0.104698
      7 N1          0.6490    2.3330    3.6740 n         1 MOL     -0.552786
      8 C3         -0.1670    2.1080    2.4920 c3        1 MOL      0.089879
      9 C4         -0.3390    3.4880    1.7610 c         1 MOL      0.397953
     10 O2         -0.9880    4.3940    2.3190 o         1 MOL     -0.547708
     11 C5         -1.5980    1.5940    2.9170 c3        1 MOL     -0.060494
     12 C6         -2.4920    1.3770    1.6720 c         1 MOL      0.753780
     13 O3         -3.7220    1.3270    1.8520 o         1 MOL     -0.717195
     14 O4         -1.9520    1.4460    0.5560 o         1 MOL     -0.717195
     15 H4          0.2150    2.4610    4.5710 hn        1 MOL      0.323855
     16 H5          0.2940    1.3360    1.8720 h1        1 MOL     -0.015874
     17 H6         -2.1020    2.2580    3.6150 hc        1 MOL      0.025318
     18 H7         -1.5660    0.6320    3.4250 hc        1 MOL      0.025318
     19 N2          0.4280    3.7950    0.7500 n         1 MOL     -0.063909
     20 C7          0.7370    5.1150    0.1850 c3        1 MOL     -0.077122
     21 C8         -0.3510    5.5550   -0.7840 c         1 MOL      0.388170
     22 O5         -0.5110    6.7380   -0.8680 o         1 MOL     -0.550805
     23 C9          2.0790    5.1660   -0.6080 c3        1 MOL     -0.133068
     24 C10         3.3570    4.7630    0.1780 c3        1 MOL      0.067179
     25 C11         3.5740    5.6510    1.4290 c3        1 MOL     -0.214636
     26 C12         4.8940    5.3720    2.1370 c3        1 MOL      0.211416
     27 N3          5.1330    6.1970    3.3220 n4        1 MOL     -0.388701
     28 H8          0.9200    3.0040    0.3540 hn        1 MOL      0.233446
     29 H9          0.7930    5.9200    0.9220 h1        1 MOL      0.095259
     30 H10         2.3260    6.1430   -1.0380 hc        1 MOL      0.072556
     31 H11         2.1010    4.4170   -1.3940 hc        1 MOL      0.072556
     32 H12         4.1510    4.9240   -0.5540 hc        1 MOL      0.023769
     33 H13         3.3810    3.7540    0.5910 hc        1 MOL      0.023769
     34 H14         2.7430    5.5100    2.1150 hc        1 MOL      0.064315
     35 H15         3.6670    6.6880    1.0850 hc        1 MOL      0.064315
     36 H16         5.7310    5.5060    1.4530 hx        1 MOL      0.046685
     37 H17         4.9660    4.3100    2.3940 hx        1 MOL      0.046685
     38 H18         4.9660    7.1710    3.1360 hn        1 MOL      0.323509
     39 H19         4.5250    5.9750    4.0980 hn        1 MOL      0.323509
     40 H20         6.0960    6.0720    3.5950 hn        1 MOL      0.323509
     41 N4         -1.1990    4.7170   -1.3370 n         1 MOL     -0.023481
     42 C13        -2.2760    5.1270   -2.1700 c3        1 MOL     -0.003195
     43 C14        -3.6880    4.8840   -1.4460 c         1 MOL      0.370526
     44 O6         -4.7100    5.3530   -1.9820 o         1 MOL     -0.510818
     45 C15        -2.2010    4.5090   -3.5930 c3        1 MOL     -0.163938
     46 C16        -2.1490    2.9810   -3.5490 c         1 MOL      0.844121
     47 O7         -1.8310    2.3720   -4.6050 o         1 MOL     -0.761160
     48 O8         -2.4200    2.3450   -2.5030 o         1 MOL     -0.761160
     49 H21        -0.9580    3.7530   -1.1730 hn        1 MOL     -0.030459
     50 H22        -2.2510    6.2150   -2.2870 h1        1 MOL      0.094412
     51 H23        -1.2540    4.7820   -4.0540 hc        1 MOL      0.046542
     52 H24        -3.0390    4.8380   -4.2040 hc        1 MOL      0.046542
     53 N5         -3.6840    4.2390   -0.3040 n         1 MOL     -0.121687
     54 C17        -4.9220    4.0720    0.4590 c3        1 MOL     -0.204832
     55 C18        -5.9650    3.0560   -0.1120 c         1 MOL      0.489018
     56 O9         -7.1830    3.3210   -0.0070 o         1 MOL     -0.562572
     57 H25        -2.8070    3.9750    0.1250 hn        1 MOL      0.166422
     58 H26        -5.4160    5.0390    0.5020 h1        1 MOL      0.112759
     59 H27        -4.6840    3.7920    1.4750 h1        1 MOL      0.112759
     60 N6         -5.5000    1.9750   -0.7050 n         1 MOL     -0.141328
     61 C19        -6.4140    0.9450   -1.2660 c3        1 MOL     -0.128496
     62 C20        -6.7130   -0.2380   -0.3520 c         1 MOL      0.258445
     63 O10        -7.3010   -1.2570   -0.8040 o         1 MOL     -0.429099
     64 C21        -5.7830    0.3640   -2.6050 c3        1 MOL     -0.146860
     65 C22        -4.5010   -0.4860   -2.3890 c         1 MOL      0.444744
     66 N7         -4.1650   -1.3180   -3.3030 n         1 MOL     -0.689937
     67 O11        -3.7940   -0.3840   -1.3900 o         1 MOL     -0.345423
     68 H28        -4.4940    1.8560   -0.7290 hn        1 MOL      0.147070
     69 H29        -7.3650    1.3590   -1.5800 h1        1 MOL      0.167567
     70 H30        -5.4790    1.1240   -3.3130 hc        1 MOL      0.082274
     71 H31        -6.5640   -0.2840   -3.0190 hc        1 MOL      0.082274
     72 H32        -4.6690   -1.2190   -4.1790 hn        1 MOL      0.343924
     73 H33        -3.3960   -1.9730   -3.3190 hn        1 MOL      0.343924
     74 N8         -6.1260   -0.1520    0.8420 n         1 MOL     -0.043976
     75 C23        -6.3270   -1.0460    1.9750 c3        1 MOL     -0.470502
     76 C24        -5.2120   -2.1160    2.1750 c         1 MOL      0.711656
     77 O12        -5.4060   -3.0070    3.0370 o         1 MOL     -0.578211
     78 H34        -5.4960    0.5940    1.0720 hn        1 MOL      0.233857
     79 H35        -7.2930   -1.5250    1.8090 h1        1 MOL      0.186577
     80 H36        -6.3630   -0.4020    2.8610 h1        1 MOL      0.186577
     81 N9         -4.1390   -2.1570    1.4220 n         1 MOL     -0.512239
     82 C25        -3.0570   -3.1180    1.3610 c3        1 MOL     -0.044267
     83 C26        -1.6860   -2.5120    1.2440 c         1 MOL      0.735114
     84 O13        -1.4320   -1.6080    0.4600 o         1 MOL     -0.766692
     85 C27        -3.3440   -4.0840    0.2220 c3        1 MOL      0.090323
     86 C28        -4.7290   -4.6950    0.2570 ca        1 MOL     -0.217667
     87 C29        -5.8120   -4.2580   -0.5650 ca        1 MOL      0.001193
     88 C30        -4.9650   -5.6340    1.2170 ca        1 MOL      0.001193
     89 C31        -7.0820   -4.8580   -0.5620 ca        1 MOL     -0.339563
     90 C32        -6.2440   -6.2210    1.3000 ca        1 MOL     -0.339563
     91 C33        -7.2770   -5.8480    0.4200 ca        1 MOL      0.442908
     92 O14        -8.4600   -6.5150    0.5810 oh        1 MOL     -0.510923
     93 H37        -4.0250   -1.4210    0.7310 hn        1 MOL      0.343487
     94 H38        -3.1080   -3.7680    2.2370 h1        1 MOL      0.091080
     95 H39        -2.6600   -4.9310    0.2000 hc        1 MOL      0.012062
     96 H40        -3.2940   -3.5610   -0.7300 hc        1 MOL      0.012062
     97 H41        -5.5370   -3.4720   -1.2520 ha        1 MOL      0.097544
     98 H42        -4.1610   -6.0280    1.8350 ha        1 MOL      0.097544
     99 H43        -7.8700   -4.6800   -1.2790 ha        1 MOL      0.160432
    100 H44        -6.4730   -6.9830    2.0210 ha        1 MOL      0.160432
    101 H45        -8.4320   -7.3880    0.9890 ho        1 MOL      0.351608
    102 N10        -0.7080   -2.9670    2.0300 n         1 MOL     -0.563763
    103 C34         0.6510   -2.5450    1.8470 c3        1 MOL      0.082622
    104 C35         1.4240   -3.4220    0.8560 c         1 MOL      0.478869
    105 O15         1.5530   -4.6340    1.0600 o         1 MOL     -0.543568
    106 C36         1.3370   -2.4520    3.2280 c3        1 MOL      0.042519
    107 C37         0.7340   -1.4640    4.1900 c3        1 MOL      0.124248
    108 C38         2.8630   -2.3030    3.1360 c3        1 MOL     -0.092123
    109 C39         1.0350   -1.7890    5.6630 c3        1 MOL     -0.250678
    110 H46        -0.9380   -3.6800    2.7080 hn        1 MOL      0.308549
    111 H47         0.7130   -1.5360    1.4310 h1        1 MOL      0.137527
    112 H48         1.2010   -3.4270    3.7080 hc        1 MOL      0.031828
    113 H49        -0.3460   -1.4380    4.0320 hc        1 MOL     -0.026943
    114 H50         0.9760   -0.4300    3.9430 hc        1 MOL     -0.026943
    115 H51         3.3980   -2.9870    2.4910 hc        1 MOL      0.012003
    116 H52         3.1410   -1.3240    2.7500 hc        1 MOL      0.012003
    117 H53         3.2960   -2.4370    4.1290 hc        1 MOL      0.012003
    118 H54         0.8200   -2.7940    6.0270 hc        1 MOL      0.063497
    119 H55         2.0490   -1.6020    6.0080 hc        1 MOL      0.063497
    120 H56         0.4790   -1.0300    6.2060 hc        1 MOL      0.063497
    121 N11         1.9830   -2.8350   -0.2470 n         1 MOL     -0.185063
    122 C40         2.9160   -3.6260   -1.1110 c3        1 MOL     -0.074314
    123 C41         4.3960   -3.7000   -0.5740 c         1 MOL      0.347712
    124 O16         4.8200   -2.7980    0.1410 o         1 MOL     -0.231433
    125 C42         2.8700   -3.1970   -2.5360 c3        1 MOL     -0.038732
    126 O17         3.2980   -1.9150   -2.6410 oh        1 MOL     -0.425859
    127 H57         1.9660   -1.8430   -0.4520 hn        1 MOL      0.127865
    128 H58         2.4790   -4.6270   -1.1580 h1        1 MOL      0.089567
    129 H59         1.8850   -3.2580   -2.9900 h1        1 MOL      0.066201
    130 H60         3.6130   -3.7360   -3.1330 h1        1 MOL      0.066201
    131 H61         2.5900   -1.2760   -2.5500 ho        1 MOL      0.348218
    132 N12         5.2050   -4.6750   -1.0220 n         1 MOL     -0.341287
    133 C43         6.6360   -4.7050   -0.7420 c3        1 MOL      0.075183
    134 C44         7.3040   -3.4070   -1.2760 c         1 MOL      0.588845
    135 O18         8.1820   -2.9110   -0.5990 o         1 MOL     -0.533548
    136 C45         7.1670   -5.9500   -1.3360 c3        1 MOL     -0.221614
    137 H62         4.8490   -5.3230   -1.7100 hn        1 MOL      0.262192
    138 H63         6.6730   -4.7530    0.3490 h1        1 MOL      0.091598
    139 H64         6.5510   -6.7840   -0.9880 hc        1 MOL      0.071228
    140 H65         7.1930   -5.8370   -2.4260 hc        1 MOL      0.071228
    141 H66         8.1890   -6.0930   -1.0250 hc        1 MOL      0.071228
    142 N13         6.8680   -2.8090   -2.4100 n         1 MOL     -0.490230
    143 C46         7.2880   -1.5440   -3.1000 c3        1 MOL      0.160212
    144 C47         6.9150   -0.3620   -2.1440 c         1 MOL      0.211468
    145 O19         7.4710    0.7540   -2.2810 o         1 MOL     -0.536587
    146 C48         6.5270   -1.3280   -4.3980 c3        1 MOL     -0.265553
    147 H67         6.1040   -3.2310   -2.9300 hn        1 MOL      0.304226
    148 H68         8.3500   -1.5910   -3.3180 h1        1 MOL      0.104359
    149 H69         6.5770   -0.3370   -4.8360 hc        1 MOL      0.086094
    150 H70         6.9930   -1.9410   -5.1630 hc        1 MOL      0.086094
    151 H71         5.5090   -1.6790   -4.1860 hc        1 MOL      0.086094
    152 N14         5.9280   -0.4760   -1.2810 n         1 MOL      0.424434
    153 C49         5.4510    0.5450   -0.3530 c3        1 MOL     -0.021757
    154 C50         6.1230    0.3860    1.0610 c         1 MOL      0.328802
    155 O20         6.4960    1.4090    1.6480 o         1 MOL     -0.551411
    156 C51         3.9070    0.5230   -0.2450 c3        1 MOL      0.131563
    157 C52         3.2460    1.1280   -1.5130 c3        1 MOL     -0.013012
    158 C53         1.7890    0.8480   -1.4510 c         1 MOL      0.429114
    159 O21         1.3930   -0.3620   -1.5940 o         1 MOL     -0.598576
    160 O22         0.9180    1.7260   -1.1510 o         1 MOL     -0.598576
    161 H72         5.4690   -1.3770   -1.2710 hn        1 MOL     -0.408039
    162 H73         5.7450    1.5130   -0.7650 h1        1 MOL      0.039712
    163 H74         3.5790    1.1910    0.5470 hc        1 MOL     -0.019020
    164 H75         3.5590   -0.4980   -0.0550 hc        1 MOL     -0.019020
    165 H76         3.7590    0.7210   -2.3920 hc        1 MOL      0.010625
    166 H77         3.4170    2.2000   -1.5970 hc        1 MOL      0.010625
    167 N15         6.4440   -0.8420    1.4760 n         1 MOL     -0.025422
    168 C54         7.2270   -1.1420    2.6930 c3        1 MOL     -0.172353
    169 H78         8.0520   -1.8070    2.4400 h1        1 MOL      0.083639
    170 H79         7.6230   -0.2150    3.1090 h1        1 MOL      0.083639
    171 H80         6.5840   -1.6250    3.4300 h1        1 MOL      0.083639
    172 H81         6.0250   -1.6040    0.9620 hn        1 MOL      0.053939
    173 Ca1        -1.1640    0.2370   -1.5030 Ca        1 MOL      1.714141
    174 O23        -1.3210   -2.2010   -2.6470 oh        1 MOL     -0.878839
    175 H82        -1.0850   -2.2980   -3.5750 ho        1 MOL      0.419790
    176 H83        -1.3240   -3.0870   -2.3100 ho        1 MOL      0.419790
    177 O24        -0.3960    0.2490   -3.9580 oh        1 MOL     -0.878839
    178 H84        -0.7850    1.0570   -4.3120 ho        1 MOL      0.419790
    179 H85         0.0860   -0.1250   -4.6960 ho        1 MOL      0.419790
@<TRIPOS>BOND
     1    1    2 1   
     2    1    4 1   
     3    1    5 1   
     4    1    6 1   
     5    2    3 2   
     6    2    7 1   
     7    7    8 1   
     8    7   15 1   
     9    8    9 1   
    10    8   11 1   
    11    8   16 1   
    12    9   10 2   
    13    9   19 1   
    14   11   12 1   
    15   11   17 1   
    16   11   18 1   
    17   12   13 1   
    18   12   14 1   
    19   19   20 1   
    20   19   28 1   
    21   20   21 1   
    22   20   23 1   
    23   20   29 1   
    24   21   22 2   
    25   21   41 1   
    26   23   24 1   
    27   23   30 1   
    28   23   31 1   
    29   24   25 1   
    30   24   32 1   
    31   24   33 1   
    32   25   26 1   
    33   25   34 1   
    34   25   35 1   
    35   26   27 1   
    36   26   36 1   
    37   26   37 1   
    38   27   38 1   
    39   27   39 1   
    40   27   40 1   
    41   41   42 1   
    42   41   49 1   
    43   42   43 1   
    44   42   45 1   
    45   42   50 1   
    46   43   44 2   
    47   43   53 1   
    48   45   46 1   
    49   45   51 1   
    50   45   52 1   
    51   46   47 1   
    52   46   48 1   
    53   53   54 1   
    54   53   57 1   
    55   54   55 1   
    56   54   58 1   
    57   54   59 1   
    58   55   56 2   
    59   55   60 1   
    60   60   61 1   
    61   60   68 1   
    62   61   62 1   
    63   61   64 1   
    64   61   69 1   
    65   62   63 2   
    66   62   74 1   
    67   64   65 1   
    68   64   70 1   
    69   64   71 1   
    70   65   66 1   
    71   65   67 2   
    72   66   72 1   
    73   66   73 1   
    74   74   75 1   
    75   74   78 1   
    76   75   76 1   
    77   75   79 1   
    78   75   80 1   
    79   76   77 2   
    80   76   81 1   
    81   81   82 1   
    82   81   93 1   
    83   82   83 1   
    84   82   85 1   
    85   82   94 1   
    86   83   84 2   
    87   83  102 1   
    88   85   86 1   
    89   85   95 1   
    90   85   96 1   
    91   86   87 ar  
    92   86   88 ar  
    93   87   89 ar  
    94   87   97 1   
    95   88   90 ar  
    96   88   98 1   
    97   89   91 ar  
    98   89   99 1   
    99   90   91 ar  
   100   90  100 1   
   101   91   92 1   
   102   92  101 1   
   103  102  103 1   
   104  102  110 1   
   105  103  104 1   
   106  103  106 1   
   107  103  111 1   
   108  104  105 2   
   109  104  121 1   
   110  106  107 1   
   111  106  108 1   
   112  106  112 1   
   113  107  109 1   
   114  107  113 1   
   115  107  114 1   
   116  108  115 1   
   117  108  116 1   
   118  108  117 1   
   119  109  118 1   
   120  109  119 1   
   121  109  120 1   
   122  121  122 1   
   123  121  127 1   
   124  122  123 1   
   125  122  125 1   
   126  122  128 1   
   127  123  124 2   
   128  123  132 1   
   129  125  126 1   
   130  125  129 1   
   131  125  130 1   
   132  126  131 1   
   133  132  133 1   
   134  132  137 1   
   135  133  134 1   
   136  133  136 1   
   137  133  138 1   
   138  134  135 2   
   139  134  142 1   
   140  136  139 1   
   141  136  140 1   
   142  136  141 1   
   143  142  143 1   
   144  142  147 1   
   145  143  144 1   
   146  143  146 1   
   147  143  148 1   
   148  144  145 2   
   149  144  152 1   
   150  146  149 1   
   151  146  150 1   
   152  146  151 1   
   153  152  153 1   
   154  152  161 1   
   155  153  154 1   
   156  153  156 1   
   157  153  162 1   
   158  154  155 2   
   159  154  167 1   
   160  156  157 1   
   161  156  163 1   
   162  156  164 1   
   163  157  158 1   
   164  157  165 1   
   165  157  166 1   
   166  158  159 1   
   167  158  160 1   
   168  167  168 1   
   169  167  172 1   
   170  168  169 1   
   171  168  170 1   
   172  168  171 1   
   173  174  175 1   
   174  174  176 1   
   175  177  178 1   
   176  177  179 1   
@<TRIPOS>SUBSTRUCTURE
     1 MOL         1 TEMP              0 ****  ****    0 ROOT
