@<TRIPOS>MOLECULE
MOL
  172   171     1     0     0
SMALL
resp


@<TRIPOS>ATOM
      1 C1         -0.6470   -3.8400    5.4090 c3        1 MOL     -0.389611
      2 C2          0.0570   -3.7460    4.0620 c         1 MOL      0.670645
      3 O1         -0.5750   -3.9420    3.0630 o         1 MOL     -0.548118
      4 H1          0.0790   -4.0940    6.1810 hc        1 MOL      0.097029
      5 H2         -1.1080   -2.8810    5.6460 hc        1 MOL      0.097029
      6 H3         -1.4150   -4.6120    5.3650 hc        1 MOL      0.097029
      7 N1          1.3320   -3.3990    3.9670 n         1 MOL     -0.540975
      8 C3          2.1120   -3.2890    2.7800 c3        1 MOL      0.128006
      9 C4          2.2980   -4.6360    2.0750 c         1 MOL      0.608916
     10 O2          2.6340   -5.6600    2.6780 o         1 MOL     -0.562981
     11 C5          3.3760   -2.4350    3.0180 c3        1 MOL     -0.214792
     12 C6          4.1110   -2.4250    1.7170 c         1 MOL      0.615139
     13 O3          5.2070   -3.1000    1.6660 o         1 MOL     -0.630790
     14 O4          3.5820   -1.8020    0.7120 o         1 MOL     -0.630790
     15 H4          1.8900   -3.4370    4.8030 hn        1 MOL      0.283058
     16 H5          1.4740   -2.6330    2.1860 h1        1 MOL      0.061749
     17 H6          3.8400   -2.9440    3.8580 hc        1 MOL      0.028435
     18 H7          3.1020   -1.4000    3.2530 hc        1 MOL      0.028435
     19 N2          2.1990   -4.4690    0.7130 n         1 MOL     -0.524725
     20 C7          2.4930   -5.4880   -0.2710 c3        1 MOL      0.193374
     21 C8          3.4570   -5.1100   -1.4470 c         1 MOL      0.521306
     22 O5          3.5560   -5.7720   -2.4720 o         1 MOL     -0.563311
     23 C9          1.0840   -5.8650   -0.8010 c3        1 MOL     -0.204888
     24 H8          1.8980   -3.5870    0.3260 hn        1 MOL      0.424526
     25 H9          2.9020   -6.3670    0.2290 h1        1 MOL      0.018542
     26 H10         0.6670   -4.9140   -1.1370 hc        1 MOL      0.047985
     27 H11         1.0410   -6.5990   -1.5930 hc        1 MOL      0.047985
     28 H12         0.4490   -6.1950    0.0260 hc        1 MOL      0.047985
     29 N3          4.1440   -3.9540   -1.2680 n         1 MOL     -0.448075
     30 C10         5.0570   -3.4840   -2.3280 c3        1 MOL      0.087928
     31 C11         6.3880   -2.6850   -1.8930 c         1 MOL      0.383266
     32 O6          7.2690   -2.4710   -2.7180 o         1 MOL     -0.537342
     33 C12         4.2410   -2.6460   -3.3430 c3        1 MOL     -0.136590
     34 C13         3.5470   -1.4300   -2.7130 c         1 MOL      0.763466
     35 O7          4.1090   -0.7410   -1.8470 o         1 MOL     -0.728094
     36 O8          2.3590   -1.1930   -2.9330 o         1 MOL     -0.728094
     37 H13         3.9180   -3.3380   -0.5010 hn        1 MOL      0.208724
     38 H14         5.4420   -4.3630   -2.8410 h1        1 MOL      0.080074
     39 H15         3.5140   -3.2900   -3.8390 hc        1 MOL      0.030931
     40 H16         4.9550   -2.2930   -4.0940 hc        1 MOL      0.030931
     41 N4          6.4990   -2.2550   -0.6120 n         1 MOL     -0.180010
     42 C14         7.6480   -1.5130   -0.0480 c3        1 MOL     -0.377909
     43 C15         7.6780   -0.0640   -0.5630 c         1 MOL      0.600363
     44 O9          8.6080    0.6370   -0.1950 o         1 MOL     -0.618734
     45 H17         5.7000   -2.2740    0.0000 hn        1 MOL      0.201708
     46 H18         8.5440   -2.0430   -0.3650 h1        1 MOL      0.170627
     47 H19         7.4640   -1.4950    1.0360 h1        1 MOL      0.170627
     48 N5          6.6090    0.5160   -1.2060 n         1 MOL     -0.269469
     49 C16         6.6050    1.9190   -1.7070 c3        1 MOL     -0.110999
     50 C17         6.3310    3.0340   -0.6870 c         1 MOL      0.450213
     51 O10         6.2290    4.2080   -1.0530 o         1 MOL     -0.525542
     52 C18         5.5540    1.9980   -2.8310 c3        1 MOL     -0.070173
     53 C19         4.0620    2.0860   -2.3860 c         1 MOL      0.473499
     54 N6          3.1940    1.9540   -3.3630 n         1 MOL     -0.625559
     55 O11         3.6590    2.3760   -1.2780 o         1 MOL     -0.395734
     56 H20         5.7630   -0.0280   -1.2880 hn        1 MOL      0.196255
     57 H21         7.5510    2.1870   -2.1790 h1        1 MOL      0.140813
     58 H22         5.5710    1.1580   -3.5300 hc        1 MOL      0.041866
     59 H23         5.7270    2.8590   -3.4780 hc        1 MOL      0.041866
     60 H24         3.5210    1.6360   -4.2610 hn        1 MOL      0.331315
     61 H25         2.2230    2.0180   -3.0820 hn        1 MOL      0.331315
     62 N7          6.1600    2.7900    0.6430 n         1 MOL     -0.183289
     63 C20         6.0620    3.7740    1.7100 c3        1 MOL     -0.398314
     64 C21         4.7210    4.4850    1.9000 c         1 MOL      0.528969
     65 O12         4.6000    5.3220    2.8480 o         1 MOL     -0.579800
     66 H26         6.2500    1.8290    0.9480 hn        1 MOL      0.242382
     67 H27         6.7850    4.5530    1.4990 h1        1 MOL      0.160413
     68 H28         6.2770    3.3000    2.6680 h1        1 MOL      0.160413
     69 N8          3.6730    4.1600    1.0880 n         1 MOL      0.016248
     70 C22         2.3610    4.7720    1.1150 c3        1 MOL     -0.575034
     71 C23         1.2730    3.6650    1.0490 c         1 MOL      0.676662
     72 O13         1.4350    2.7010    0.3020 o         1 MOL     -0.524871
     73 C24         2.1490    5.8090   -0.0420 c3        1 MOL      0.636425
     74 C25         3.1090    6.9260   -0.0330 c3        1 MOL     -0.469285
     75 O14         2.1720    5.2070   -1.2620 oh        1 MOL     -0.605559
     76 H29         3.7620    3.4390    0.3820 hn        1 MOL      0.156388
     77 H30         2.2750    5.3280    2.0480 h1        1 MOL      0.143793
     78 H31         1.1630    6.2680   -0.0330 h1        1 MOL     -0.048012
     79 H32         2.1390    4.2490   -1.2180 ho        1 MOL      0.334345
     80 H33         4.1590    6.6330   -0.0320 hc        1 MOL      0.108483
     81 H34         2.9340    7.6550   -0.8320 hc        1 MOL      0.108483
     82 H35         3.0090    7.4000    0.9440 hc        1 MOL      0.108483
     83 N9          0.1150    3.9250    1.6270 n         1 MOL     -0.535485
     84 C26        -1.1090    3.0210    1.7040 c3        1 MOL     -0.127307
     85 C27        -1.8890    3.2220    0.3720 c         1 MOL      0.799989
     86 O15        -2.5180    4.2390    0.1460 o         1 MOL     -0.621644
     87 C28        -2.0190    3.0980    2.9740 c3        1 MOL      0.099013
     88 C29        -1.2020    3.4120    4.3030 c3        1 MOL      0.038527
     89 C30        -2.7830    1.7680    3.1320 c3        1 MOL     -0.129465
     90 C31        -2.1080    3.7670    5.3860 c3        1 MOL     -0.073777
     91 H36         0.0090    4.8430    2.0410 hn        1 MOL      0.297187
     92 H37        -0.6890    2.0140    1.7740 h1        1 MOL      0.128612
     93 H38        -2.8260    3.7950    2.7380 hc        1 MOL     -0.015406
     94 H39        -0.4790    4.2210    4.2300 hc        1 MOL      0.001610
     95 H40        -0.6050    2.5280    4.5440 hc        1 MOL      0.001610
     96 H41        -3.2260    1.6310    2.1420 hc        1 MOL      0.027641
     97 H42        -2.1240    0.9280    3.3290 hc        1 MOL      0.027641
     98 H43        -3.5210    1.7760    3.9280 hc        1 MOL      0.027641
     99 H44        -3.0440    3.2220    5.3100 hc        1 MOL      0.008618
    100 H45        -1.5710    3.6140    6.3280 hc        1 MOL      0.008618
    101 H46        -2.4240    4.8110    5.4410 hc        1 MOL      0.008618
    102 N10        -1.7620    2.2530   -0.5280 n         1 MOL     -0.466806
    103 C32        -2.6750    2.0890   -1.6370 c3        1 MOL      0.097244
    104 C33        -3.9590    1.3550   -1.2250 c         1 MOL      0.444485
    105 O16        -4.0080    0.8340   -0.1060 o         1 MOL     -0.339067
    106 C34        -1.9380    1.0900   -2.6010 c3        1 MOL     -0.327381
    107 C35        -0.4550    1.4610   -2.9330 c         1 MOL      0.745384
    108 O17         0.4580    1.0880   -2.1270 o         1 MOL     -0.668537
    109 O18        -0.1670    1.9690   -3.9900 o         1 MOL     -0.668537
    110 H47        -1.4050    1.3600   -0.1950 hn        1 MOL      0.180110
    111 H48        -2.9370    2.9850   -2.2080 h1        1 MOL      0.090982
    112 H49        -2.4720    1.0500   -3.5500 hc        1 MOL      0.093783
    113 H50        -1.9130    0.1220   -2.0900 hc        1 MOL      0.093783
    114 N11        -5.0400    1.4670   -2.0180 n         1 MOL     -0.820973
    115 C36        -6.3610    1.1810   -1.4870 c3        1 MOL      0.619072
    116 C37        -6.6740   -0.2990   -1.1050 c         1 MOL      0.116269
    117 O19        -7.3780   -0.5210   -0.1140 o         1 MOL     -0.417361
    118 C38        -7.4730    1.7650   -2.3870 c3        1 MOL     -0.238425
    119 C39        -8.8670    1.7230   -1.8140 ca        1 MOL      0.126741
    120 C40        -9.9120    1.1680   -2.5710 ca        1 MOL     -0.212028
    121 C41        -9.1350    2.1330   -0.4960 ca        1 MOL     -0.212028
    122 C42       -11.1750    0.9540   -1.9690 ca        1 MOL     -0.096238
    123 C43       -10.5000    2.1870    0.0070 ca        1 MOL     -0.096238
    124 C44       -11.4390    1.4060   -0.6990 ca        1 MOL     -0.093871
    125 H51        -4.9750    1.9000   -2.9330 hn        1 MOL      0.372120
    126 H52        -6.5560    1.6970   -0.5420 h1        1 MOL      0.010055
    127 H53        -7.3440    1.4290   -3.4190 hc        1 MOL      0.055065
    128 H54        -7.1440    2.8030   -2.4710 hc        1 MOL      0.055065
    129 H55        -9.6490    0.7620   -3.5260 ha        1 MOL      0.131414
    130 H56        -8.4140    2.5650    0.1780 ha        1 MOL      0.131414
    131 H57       -11.9760    0.5710   -2.5870 ha        1 MOL      0.104923
    132 H58       -10.7790    2.5300    0.9910 ha        1 MOL      0.104923
    133 H59       -12.4120    1.2090   -0.2780 ha        1 MOL      0.091510
    134 N12        -6.1220   -1.3470   -1.8310 n         1 MOL      0.082605
    135 C45        -6.2960   -2.7140   -1.4430 c3        1 MOL      0.017830
    136 C46        -5.5970   -3.0440   -0.1310 c         1 MOL      0.200674
    137 O20        -5.9910   -3.9910    0.5590 o         1 MOL     -0.496451
    138 C47        -5.8870   -3.5940   -2.6050 c3        1 MOL     -0.043189
    139 C48        -5.9050   -2.7270   -3.8560 c3        1 MOL     -0.102756
    140 C49        -5.6770   -1.3010   -3.2400 c3        1 MOL      0.036678
    141 H60        -7.3610   -2.8330   -1.2430 h1        1 MOL      0.059229
    142 H61        -4.9050   -4.0520   -2.4860 hc        1 MOL      0.047810
    143 H62        -6.6360   -4.3730   -2.7570 hc        1 MOL      0.047810
    144 H63        -5.1180   -2.9930   -4.5620 hc        1 MOL      0.041739
    145 H64        -6.9150   -2.6240   -4.2660 hc        1 MOL      0.041739
    146 H65        -4.6400   -0.9770   -3.3340 h1        1 MOL      0.006266
    147 H66        -6.3570   -0.6200   -3.7410 h1        1 MOL      0.006266
    148 N13        -4.6030   -2.2590    0.3030 n         1 MOL      0.082500
    149 C50        -3.9260   -2.2360    1.6140 c3        1 MOL     -0.437047
    150 C51        -4.8870   -1.6030    2.6580 c         1 MOL      0.645712
    151 O21        -5.0570   -2.1370    3.7650 o         1 MOL     -0.568167
    152 C52        -2.5660   -1.6230    1.5560 c3        1 MOL      0.022543
    153 C53        -1.7540   -2.2610    0.5240 c3        1 MOL      0.175470
    154 C54        -0.3700   -1.6750    0.4050 c         1 MOL      0.547346
    155 O22         0.5960   -2.2350   -0.1220 o         1 MOL     -0.763305
    156 O23        -0.1230   -0.4840    0.8830 o         1 MOL     -0.763305
    157 H67        -4.4290   -1.4910   -0.3250 hn        1 MOL      0.066232
    158 H68        -3.7890   -3.2780    1.9020 h1        1 MOL      0.166134
    159 H69        -2.0750   -1.7810    2.5150 hc        1 MOL      0.063953
    160 H70        -2.6160   -0.5460    1.3600 hc        1 MOL      0.063953
    161 H71        -2.2280   -2.4000   -0.4460 hc        1 MOL     -0.007775
    162 H72        -1.6310   -3.2960    0.8460 hc        1 MOL     -0.007775
    163 N14        -5.3760   -0.3550    2.4160 n         1 MOL     -0.212580
    164 C55        -6.3350    0.2960    3.3170 c3        1 MOL     -0.299052
    165 H73        -6.0210    0.1460    4.3500 h1        1 MOL      0.112858
    166 H74        -6.3720    1.3640    3.1000 h1        1 MOL      0.112858
    167 H75        -7.3240   -0.1400    3.1720 h1        1 MOL      0.112858
    168 H76        -5.0090    0.1130    1.5930 hn        1 MOL      0.155503
    169 Ca1         2.1370    0.0090   -0.3550 Ca        1 MOL      1.722689
    170 O24         3.7480    1.1430    1.6340 oh        1 MOL     -1.048941
    171 H77         4.6140    0.9350    1.9650 ho        1 MOL      0.472508
    172 H78         3.1630    0.9980    2.3820 ho        1 MOL      0.472508
@<TRIPOS>BOND
     1    1    2 1   
     2    1    4 1   
     3    1    5 1   
     4    1    6 1   
     5    2    3 2   
     6    2    7 1   
     7    7    8 1   
     8    7   15 1   
     9    8    9 1   
    10    8   11 1   
    11    8   16 1   
    12    9   10 2   
    13    9   19 1   
    14   11   12 1   
    15   11   17 1   
    16   11   18 1   
    17   12   13 1   
    18   12   14 1   
    19   19   20 1   
    20   19   24 1   
    21   20   21 1   
    22   20   23 1   
    23   20   25 1   
    24   21   22 2   
    25   21   29 1   
    26   23   26 1   
    27   23   27 1   
    28   23   28 1   
    29   29   30 1   
    30   29   37 1   
    31   30   31 1   
    32   30   33 1   
    33   30   38 1   
    34   31   32 2   
    35   31   41 1   
    36   33   34 1   
    37   33   39 1   
    38   33   40 1   
    39   34   35 1   
    40   34   36 1   
    41   41   42 1   
    42   41   45 1   
    43   42   43 1   
    44   42   46 1   
    45   42   47 1   
    46   43   44 2   
    47   43   48 1   
    48   48   49 1   
    49   48   56 1   
    50   49   50 1   
    51   49   52 1   
    52   49   57 1   
    53   50   51 2   
    54   50   62 1   
    55   52   53 1   
    56   52   58 1   
    57   52   59 1   
    58   53   54 1   
    59   53   55 2   
    60   54   60 1   
    61   54   61 1   
    62   62   63 1   
    63   62   66 1   
    64   63   64 1   
    65   63   67 1   
    66   63   68 1   
    67   64   65 2   
    68   64   69 1   
    69   69   70 1   
    70   69   76 1   
    71   70   71 1   
    72   70   73 1   
    73   70   77 1   
    74   71   72 2   
    75   71   83 1   
    76   73   74 1   
    77   73   75 1   
    78   73   78 1   
    79   74   80 1   
    80   74   81 1   
    81   74   82 1   
    82   75   79 1   
    83   83   84 1   
    84   83   91 1   
    85   84   85 1   
    86   84   87 1   
    87   84   92 1   
    88   85   86 2   
    89   85  102 1   
    90   87   88 1   
    91   87   89 1   
    92   87   93 1   
    93   88   90 1   
    94   88   94 1   
    95   88   95 1   
    96   89   96 1   
    97   89   97 1   
    98   89   98 1   
    99   90   99 1   
   100   90  100 1   
   101   90  101 1   
   102  102  103 1   
   103  102  110 1   
   104  103  104 1   
   105  103  106 1   
   106  103  111 1   
   107  104  105 2   
   108  104  114 1   
   109  106  107 1   
   110  106  112 1   
   111  106  113 1   
   112  107  108 1   
   113  107  109 1   
   114  114  115 1   
   115  114  125 1   
   116  115  116 1   
   117  115  118 1   
   118  115  126 1   
   119  116  117 2   
   120  116  134 1   
   121  118  119 1   
   122  118  127 1   
   123  118  128 1   
   124  119  120 ar  
   125  119  121 ar  
   126  120  122 ar  
   127  120  129 1   
   128  121  123 ar  
   129  121  130 1   
   130  122  124 ar  
   131  122  131 1   
   132  123  124 ar  
   133  123  132 1   
   134  124  133 1   
   135  134  135 1   
   136  134  140 1   
   137  135  136 1   
   138  135  138 1   
   139  135  141 1   
   140  136  137 2   
   141  136  148 1   
   142  138  139 1   
   143  138  142 1   
   144  138  143 1   
   145  139  140 1   
   146  139  144 1   
   147  139  145 1   
   148  140  146 1   
   149  140  147 1   
   150  148  149 1   
   151  148  157 1   
   152  149  150 1   
   153  149  152 1   
   154  149  158 1   
   155  150  151 2   
   156  150  163 1   
   157  152  153 1   
   158  152  159 1   
   159  152  160 1   
   160  153  154 1   
   161  153  161 1   
   162  153  162 1   
   163  154  155 1   
   164  154  156 1   
   165  163  164 1   
   166  163  168 1   
   167  164  165 1   
   168  164  166 1   
   169  164  167 1   
   170  170  171 1   
   171  170  172 1   
@<TRIPOS>SUBSTRUCTURE
     1 MOL         1 TEMP              0 ****  ****    0 ROOT
