@<TRIPOS>MOLECULE
MOL
  189   185     1     0     0
SMALL
resp


@<TRIPOS>ATOM
      1 C1         -1.2410    3.7510    5.0410 c3        1 MOL     -0.468517
      2 C2         -1.2570    2.7580    3.8910 c         1 MOL      0.874278
      3 O1         -0.3050    2.6040    3.1370 o         1 MOL     -0.639492
      4 H1         -1.3450    3.2160    5.9840 hc        1 MOL      0.106746
      5 H2         -0.2980    4.2980    5.0360 hc        1 MOL      0.106746
      6 H3         -2.0680    4.4520    4.9280 hc        1 MOL      0.106746
      7 N1         -2.5100    2.2440    3.6100 n         1 MOL     -0.724862
      8 C3         -2.8670    1.9240    2.1710 c3        1 MOL      0.114661
      9 C4         -3.0610    3.2170    1.3720 c         1 MOL      0.503504
     10 O2         -4.0440    3.9690    1.4450 o         1 MOL     -0.542804
     11 C5         -3.9820    0.9350    2.2700 c3        1 MOL     -0.134152
     12 C6         -4.6390    0.6100    0.9560 c         1 MOL      0.716696
     13 O3         -5.9230    0.4700    0.9630 o         1 MOL     -0.633839
     14 O4         -3.9690    0.5630   -0.0860 o         1 MOL     -0.633839
     15 H4         -3.2090    2.2680    4.3320 hn        1 MOL      0.362997
     16 H5         -1.9920    1.4300    1.7520 h1        1 MOL      0.048709
     17 H6         -4.7790    1.3410    2.8960 hc        1 MOL      0.030746
     18 H7         -3.7520   -0.0200    2.7330 hc        1 MOL      0.030746
     19 N2         -1.9940    3.5230    0.5740 n         1 MOL     -0.176715
     20 C7         -1.8830    4.7360   -0.2670 c3        1 MOL     -0.208005
     21 C8         -2.5680    4.7080   -1.6280 c         1 MOL      0.653313
     22 O5         -2.5280    5.7530   -2.3180 o         1 MOL     -0.562386
     23 C9         -0.3900    5.0220   -0.4940 c3        1 MOL     -0.113687
     24 C10         0.4370    5.3660    0.7360 c3        1 MOL     -0.010597
     25 C11        -0.1900    6.4460    1.6190 c3        1 MOL     -0.023548
     26 C12         0.9040    7.2110    2.3960 c3        1 MOL      0.018946
     27 N3          0.2110    8.0730    3.4040 n4        1 MOL     -0.298742
     28 H8         -1.2230    2.8810    0.5300 hn        1 MOL      0.243839
     29 H9         -2.3860    5.5080    0.3260 h1        1 MOL      0.068323
     30 H10        -0.3880    5.8180   -1.2390 hc        1 MOL      0.059396
     31 H11         0.0720    4.1510   -0.9700 hc        1 MOL      0.059396
     32 H12         1.4350    5.6150    0.3620 hc        1 MOL      0.042766
     33 H13         0.6670    4.5830    1.4620 hc        1 MOL      0.042766
     34 H14        -0.9170    5.9770    2.2810 hc        1 MOL      0.042140
     35 H15        -0.6940    7.2430    1.0750 hc        1 MOL      0.042140
     36 H16         1.5630    7.8020    1.7510 hx        1 MOL      0.083193
     37 H17         1.3990    6.3730    2.8960 hx        1 MOL      0.083193
     38 H18        -0.1640    8.9100    2.9870 hn        1 MOL      0.307979
     39 H19        -0.6440    7.7160    3.7920 hn        1 MOL      0.307979
     40 H20         0.8610    8.2170    4.1690 hn        1 MOL      0.307979
     41 N4         -3.3240    3.6410   -1.9380 n         1 MOL     -0.316294
     42 C13        -4.0280    3.5580   -3.2010 c3        1 MOL     -0.183863
     43 C14        -5.4450    2.8480   -3.2210 c         1 MOL      0.480197
     44 O6         -6.2850    3.1400   -4.1080 o         1 MOL     -0.548276
     45 C15        -3.0960    3.0280   -4.3360 c3        1 MOL     -0.105306
     46 C16        -2.2380    1.7930   -3.9240 c         1 MOL      0.711379
     47 O7         -2.5050    1.0600   -2.9220 o         1 MOL     -0.689915
     48 O8         -1.3320    1.3800   -4.7420 o         1 MOL     -0.689915
     49 H21        -3.1550    2.7760   -1.4570 hn        1 MOL      0.112525
     50 H22        -4.2850    4.5790   -3.5070 h1        1 MOL      0.143687
     51 H23        -2.4820    3.8750   -4.6270 hc        1 MOL      0.060341
     52 H24        -3.5850    2.7950   -5.2850 hc        1 MOL      0.060341
     53 N5         -5.7870    2.0610   -2.2040 n         1 MOL     -0.142043
     54 C17        -7.1650    1.6410   -1.9200 c3        1 MOL     -0.134587
     55 C18        -7.4270    0.1550   -2.1800 c         1 MOL      0.665414
     56 O9         -8.3020   -0.1820   -2.9680 o         1 MOL     -0.590361
     57 H25        -5.0710    2.0310   -1.4940 hn        1 MOL      0.216621
     58 H26        -7.8830    2.1770   -2.5380 h1        1 MOL      0.073859
     59 H27        -7.3440    1.9310   -0.8730 h1        1 MOL      0.073859
     60 N6         -6.7240   -0.7370   -1.5310 n         1 MOL     -0.376650
     61 C19        -6.8700   -2.2320   -1.6980 c3        1 MOL      0.114112
     62 C20        -6.7080   -3.0200   -0.3880 c         1 MOL      0.367690
     63 O10        -6.8730   -4.2680   -0.3420 o         1 MOL     -0.552827
     64 C21        -5.8490   -2.8550   -2.6330 c3        1 MOL     -0.253199
     65 C22        -4.4110   -2.4810   -2.3130 c         1 MOL      0.720793
     66 O11        -3.5930   -2.1580   -3.2720 o         1 MOL     -0.714617
     67 O12        -3.9650   -2.3800   -1.1280 o         1 MOL     -0.714617
     68 H28        -6.0600   -0.3790   -0.8620 hn        1 MOL      0.017129
     69 H29        -7.8730   -2.4200   -2.0790 h1        1 MOL      0.090099
     70 H30        -6.1150   -2.4990   -3.6190 hc        1 MOL      0.084628
     71 H31        -5.8550   -3.9460   -2.5970 hc        1 MOL      0.084628
     72 N7         -6.5980   -2.4060    0.7470 n         1 MOL     -0.152336
     73 C23        -6.5670   -2.9800    2.1000 c3        1 MOL     -0.132744
     74 C24        -5.2830   -3.7830    2.4250 c         1 MOL      0.608264
     75 O13        -5.3090   -4.6410    3.2800 o         1 MOL     -0.568132
     76 H32        -6.4350   -1.4120    0.6930 hn        1 MOL      0.205832
     77 H33        -7.4340   -3.5560    2.4000 h1        1 MOL      0.083839
     78 H34        -6.4340   -2.1000    2.7310 h1        1 MOL      0.083839
     79 N8         -4.1360   -3.6110    1.6950 n         1 MOL     -0.464603
     80 C25        -2.7450   -4.1890    1.8730 c3        1 MOL     -0.089591
     81 C26        -1.7110   -3.0890    1.7350 c         1 MOL      0.904827
     82 O14        -1.9610   -2.0770    1.0720 o         1 MOL     -0.783921
     83 C27        -2.3860   -5.3760    1.0250 c3        1 MOL      0.357124
     84 C28        -3.2440   -6.5410    1.3710 c3        1 MOL     -0.594088
     85 O15        -2.5140   -5.1270   -0.3550 oh        1 MOL     -0.626883
     86 H35        -4.2410   -3.0190    0.8930 hn        1 MOL      0.299941
     87 H36        -2.6840   -4.4810    2.9170 h1        1 MOL      0.067340
     88 H37        -1.3430   -5.6270    1.1970 h1        1 MOL      0.035606
     89 H38        -3.3430   -5.5060   -0.6540 ho        1 MOL      0.433290
     90 H39        -3.2590   -6.7700    2.4370 hc        1 MOL      0.165598
     91 H40        -4.2880   -6.2840    1.1430 hc        1 MOL      0.165598
     92 H41        -3.0410   -7.4490    0.8030 hc        1 MOL      0.165598
     93 N9         -0.5490   -3.3090    2.3620 n         1 MOL     -0.659365
     94 C29         0.6740   -2.5190    2.2620 c3        1 MOL      0.082678
     95 C30         1.8360   -3.2280    1.6300 c         1 MOL      0.572058
     96 O16         2.1890   -4.3390    1.9400 o         1 MOL     -0.582425
     97 C31         0.9780   -2.0300    3.7510 c3        1 MOL     -0.058680
     98 C32        -0.1810   -1.0850    4.3210 c3        1 MOL      0.278278
     99 C33         2.2760   -1.3190    3.8090 c3        1 MOL     -0.145204
    100 C34        -0.0980   -0.6510    5.7560 c3        1 MOL     -0.415133
    101 H42        -0.4670   -4.1490    2.9170 hn        1 MOL      0.283199
    102 H43         0.4650   -1.6670    1.6190 h1        1 MOL      0.092778
    103 H44         1.0160   -2.9030    4.3900 hc        1 MOL      0.053888
    104 H45        -1.1660   -1.5380    4.2370 hc        1 MOL     -0.019404
    105 H46        -0.3380   -0.1970    3.6940 hc        1 MOL     -0.019404
    106 H47         2.9780   -1.8830    3.1920 hc        1 MOL      0.011068
    107 H48         2.2330   -0.2670    3.5400 hc        1 MOL      0.011068
    108 H49         2.6240   -1.3090    4.8490 hc        1 MOL      0.011068
    109 H50         0.7670    0.0180    5.8210 hc        1 MOL      0.092350
    110 H51        -0.9040    0.0730    5.8940 hc        1 MOL      0.092350
    111 H52        -0.0110   -1.4780    6.4500 hc        1 MOL      0.092350
    112 N10         2.3200   -2.5230    0.6410 n         1 MOL     -0.145379
    113 C35         3.5240   -2.9560   -0.1530 c3        1 MOL     -0.025252
    114 C36         4.7810   -2.2910    0.3120 c         1 MOL      0.273437
    115 O17         4.7120   -1.2950    1.0390 o         1 MOL     -0.133518
    116 C37         3.3070   -2.5710   -1.6050 c3        1 MOL      0.137761
    117 C38         2.2670   -3.4660   -2.3570 c3        1 MOL     -0.317641
    118 O18         2.8710   -1.2410   -1.7370 oh        1 MOL     -0.520425
    119 H53         1.8840   -1.6740    0.3100 hn        1 MOL      0.176270
    120 H54         3.7020   -4.0300   -0.0310 h1        1 MOL      0.075123
    121 H55         4.2350   -2.6420   -2.1740 h1        1 MOL      0.039703
    122 H56         1.9330   -1.2590   -1.5270 ho        1 MOL      0.320365
    123 H57         1.3880   -3.6410   -1.7270 hc        1 MOL      0.095410
    124 H58         1.9180   -3.0640   -3.3080 hc        1 MOL      0.095410
    125 H59         2.6150   -4.4540   -2.6350 hc        1 MOL      0.095410
    126 N11         6.0290   -2.7280   -0.0940 n         1 MOL     -0.418326
    127 C39         7.3280   -2.1990    0.3620 c3        1 MOL     -0.022596
    128 C40         7.3450   -0.6800    0.2390 c         1 MOL      0.210476
    129 O19         7.8130   -0.0500    1.2090 o         1 MOL     -0.470926
    130 C41         8.4500   -2.8430   -0.5010 c3        1 MOL      0.295217
    131 C42         8.6080   -4.2610   -0.0570 c3        1 MOL     -0.371038
    132 O20         8.1590   -2.7640   -1.8900 oh        1 MOL     -0.645932
    133 H60         6.0890   -3.3940   -0.8510 hn        1 MOL      0.296781
    134 H61         7.5690   -2.5340    1.3680 h1        1 MOL      0.146740
    135 H62         9.3830   -2.2810   -0.4780 h1        1 MOL      0.023892
    136 H63         8.8980   -3.1590   -2.3510 ho        1 MOL      0.366364
    137 H64         9.2470   -4.7670   -0.7780 hc        1 MOL      0.111061
    138 H65         9.0310   -4.2870    0.9420 hc        1 MOL      0.111061
    139 H66         7.6450   -4.7650   -0.1610 hc        1 MOL      0.111061
    140 N12         6.8880   -0.1200   -0.8740 n         1 MOL     -0.084532
    141 C43         6.7790    1.2930   -1.0920 c3        1 MOL      0.181897
    142 C44         5.9460    2.1140   -0.0610 c         1 MOL      0.305928
    143 O21         6.4400    3.1110    0.5160 o         1 MOL     -0.499537
    144 C45         6.2950    1.5800   -2.5110 c3        1 MOL     -0.157302
    145 C46         7.4500    1.6250   -3.5700 c3        1 MOL     -0.002455
    146 C47         8.3110    0.3420   -3.7560 c3        1 MOL      0.015744
    147 C48         9.3830    0.3980   -4.7900 c3        1 MOL     -0.049274
    148 N13        10.3850   -0.7330   -4.6060 n4        1 MOL     -0.174207
    149 H67         6.7120   -0.8070   -1.6010 hn        1 MOL      0.194780
    150 H68         7.7520    1.7710   -0.9980 h1        1 MOL      0.000571
    151 H69         5.7870    2.5370   -2.3940 hc        1 MOL      0.068323
    152 H70         5.5220    0.8730   -2.8190 hc        1 MOL      0.068323
    153 H71         8.0840    2.4540   -3.2570 hc        1 MOL      0.027939
    154 H72         7.1280    1.9590   -4.5570 hc        1 MOL      0.027939
    155 H73         7.5990   -0.4700   -3.9350 hc        1 MOL      0.022685
    156 H74         8.7560    0.1720   -2.7700 hc        1 MOL      0.022685
    157 H75         9.9240    1.3370   -4.6950 hx        1 MOL      0.099465
    158 H76         8.8650    0.3690   -5.7470 hx        1 MOL      0.099465
    159 H77        11.0500   -0.8620   -5.3500 hn        1 MOL      0.256128
    160 H78        10.8620   -0.7130   -3.7140 hn        1 MOL      0.256128
    161 H79         9.8640   -1.5900   -4.6110 hn        1 MOL      0.256128
    162 N14         4.7440    1.6250    0.2470 n         1 MOL     -0.083684
    163 C49         3.7940    2.1240    1.2440 c3        1 MOL     -0.193150
    164 C50         4.3240    1.8390    2.6220 c         1 MOL      0.528711
    165 O22         4.1980    2.7610    3.4300 o         1 MOL     -0.580898
    166 C51         2.3760    1.5260    1.0450 c3        1 MOL      0.034483
    167 C52         1.7860    1.6030   -0.3730 c3        1 MOL      0.018192
    168 C53         0.5900    0.7040   -0.4720 c         1 MOL      0.647280
    169 O23        -0.5420    1.1160   -0.2840 o         1 MOL     -0.670571
    170 O24         0.6540   -0.5330   -0.5870 o         1 MOL     -0.670571
    171 H80         4.4960    0.7740   -0.2320 hn        1 MOL      0.092589
    172 H81         3.7990    3.2070    1.0890 h1        1 MOL      0.101290
    173 H82         1.7210    2.0940    1.7090 hc        1 MOL      0.042046
    174 H83         2.4240    0.4860    1.3670 hc        1 MOL      0.042046
    175 H84         2.5870    1.4120   -1.0990 hc        1 MOL     -0.022667
    176 H85         1.4380    2.6150   -0.5740 hc        1 MOL     -0.022667
    177 N15         5.0000    0.7140    2.9190 n         1 MOL     -0.004718
    178 C54         5.5930    0.4060    4.1710 c3        1 MOL     -0.331963
    179 H86         4.8130    0.2950    4.9240 h1        1 MOL      0.111346
    180 H87         6.1540   -0.5250    4.0880 h1        1 MOL      0.111346
    181 H88         6.2670    1.2110    4.4630 h1        1 MOL      0.111346
    182 H89         5.1400   -0.0300    2.2450 hn        1 MOL      0.037454
    183 Ca1        -2.0790   -0.7960   -1.2780 Ca        1 MOL      1.760796
    184 O25        -1.3880   -3.3520   -1.8940 oh        1 MOL     -0.837612
    185 H90        -1.7220   -4.0350   -1.3240 ho        1 MOL      0.393093
    186 H91        -1.9040   -3.4350   -2.6910 ho        1 MOL      0.393093
    187 O26        -0.4450   -0.8680   -3.4630 oh        1 MOL     -0.837612
    188 H92        -0.8380   -0.0700   -3.8410 ho        1 MOL      0.393093
    189 H93         0.0460   -1.2500   -4.1830 ho        1 MOL      0.393093
@<TRIPOS>BOND
     1    1    2 1   
     2    1    4 1   
     3    1    5 1   
     4    1    6 1   
     5    2    3 2   
     6    2    7 1   
     7    7    8 1   
     8    7   15 1   
     9    8    9 1   
    10    8   11 1   
    11    8   16 1   
    12    9   10 2   
    13    9   19 1   
    14   11   12 1   
    15   11   17 1   
    16   11   18 1   
    17   12   13 1   
    18   12   14 1   
    19   19   20 1   
    20   19   28 1   
    21   20   21 1   
    22   20   23 1   
    23   20   29 1   
    24   21   22 2   
    25   21   41 1   
    26   23   24 1   
    27   23   30 1   
    28   23   31 1   
    29   24   25 1   
    30   24   32 1   
    31   24   33 1   
    32   25   26 1   
    33   25   34 1   
    34   25   35 1   
    35   26   27 1   
    36   26   36 1   
    37   26   37 1   
    38   27   38 1   
    39   27   39 1   
    40   27   40 1   
    41   41   42 1   
    42   41   49 1   
    43   42   43 1   
    44   42   45 1   
    45   42   50 1   
    46   43   44 2   
    47   43   53 1   
    48   45   46 1   
    49   45   51 1   
    50   45   52 1   
    51   46   47 1   
    52   46   48 1   
    53   53   54 1   
    54   53   57 1   
    55   54   55 1   
    56   54   58 1   
    57   54   59 1   
    58   55   56 2   
    59   55   60 1   
    60   60   61 1   
    61   60   68 1   
    62   61   62 1   
    63   61   64 1   
    64   61   69 1   
    65   62   63 2   
    66   62   72 1   
    67   64   65 1   
    68   64   70 1   
    69   64   71 1   
    70   65   66 1   
    71   65   67 1   
    72   72   73 1   
    73   72   76 1   
    74   73   74 1   
    75   73   77 1   
    76   73   78 1   
    77   74   75 2   
    78   74   79 1   
    79   79   80 1   
    80   79   86 1   
    81   80   81 1   
    82   80   83 1   
    83   80   87 1   
    84   81   82 2   
    85   81   93 1   
    86   83   84 1   
    87   83   85 1   
    88   83   88 1   
    89   84   90 1   
    90   84   91 1   
    91   84   92 1   
    92   85   89 1   
    93   93   94 1   
    94   93  101 1   
    95   94   95 1   
    96   94   97 1   
    97   94  102 1   
    98   95   96 2   
    99   95  112 1   
   100   97   98 1   
   101   97   99 1   
   102   97  103 1   
   103   98  100 1   
   104   98  104 1   
   105   98  105 1   
   106   99  106 1   
   107   99  107 1   
   108   99  108 1   
   109  100  109 1   
   110  100  110 1   
   111  100  111 1   
   112  112  113 1   
   113  112  119 1   
   114  113  114 1   
   115  113  116 1   
   116  113  120 1   
   117  114  115 2   
   118  114  126 1   
   119  116  117 1   
   120  116  118 1   
   121  116  121 1   
   122  117  123 1   
   123  117  124 1   
   124  117  125 1   
   125  118  122 1   
   126  126  127 1   
   127  126  133 1   
   128  127  128 1   
   129  127  130 1   
   130  127  134 1   
   131  128  129 2   
   132  128  140 1   
   133  130  131 1   
   134  130  132 1   
   135  130  135 1   
   136  131  137 1   
   137  131  138 1   
   138  131  139 1   
   139  132  136 1   
   140  140  141 1   
   141  140  149 1   
   142  141  142 1   
   143  141  144 1   
   144  141  150 1   
   145  142  143 2   
   146  142  162 1   
   147  144  145 1   
   148  144  151 1   
   149  144  152 1   
   150  145  146 1   
   151  145  153 1   
   152  145  154 1   
   153  146  147 1   
   154  146  155 1   
   155  146  156 1   
   156  147  148 1   
   157  147  157 1   
   158  147  158 1   
   159  148  159 1   
   160  148  160 1   
   161  148  161 1   
   162  162  163 1   
   163  162  171 1   
   164  163  164 1   
   165  163  166 1   
   166  163  172 1   
   167  164  165 2   
   168  164  177 1   
   169  166  167 1   
   170  166  173 1   
   171  166  174 1   
   172  167  168 1   
   173  167  175 1   
   174  167  176 1   
   175  168  169 1   
   176  168  170 1   
   177  177  178 1   
   178  177  182 1   
   179  178  179 1   
   180  178  180 1   
   181  178  181 1   
   182  184  185 1   
   183  184  186 1   
   184  187  188 1   
   185  187  189 1   
@<TRIPOS>SUBSTRUCTURE
     1 MOL         1 TEMP              0 ****  ****    0 ROOT
