@<TRIPOS>MOLECULE
MOL
  179   176     1     0     0
SMALL
resp


@<TRIPOS>ATOM
      1 C1         -0.4460   -4.9680   -4.4890 c3        1 MOL     -0.317055
      2 C2         -0.7650   -4.0260   -3.3090 c         1 MOL      0.635044
      3 O1         -0.0600   -4.0560   -2.2840 o         1 MOL     -0.552525
      4 H1         -1.3320   -5.0790   -5.1150 hc        1 MOL      0.088590
      5 H2          0.3670   -4.5480   -5.0820 hc        1 MOL      0.088590
      6 H3         -0.1490   -5.9450   -4.1060 hc        1 MOL      0.088590
      7 N1         -1.7880   -3.1620   -3.3540 n         1 MOL     -0.540469
      8 C3         -2.1870   -2.4210   -2.1950 c3        1 MOL      0.050164
      9 C4         -3.3550   -3.1710   -1.4020 c         1 MOL      0.504437
     10 O2         -4.5130   -2.8500   -1.4990 o         1 MOL     -0.506119
     11 C5         -2.6570   -1.0240   -2.5740 c3        1 MOL     -0.104835
     12 C6         -3.0960   -0.1310   -1.3660 c         1 MOL      0.771240
     13 O3         -2.5320   -0.3000   -0.2900 o         1 MOL     -0.762027
     14 O4         -4.0390    0.6440   -1.4460 o         1 MOL     -0.762027
     15 H4         -2.2630   -2.9460   -4.2170 hn        1 MOL      0.321433
     16 H5         -1.3090   -2.2410   -1.5740 h1        1 MOL      0.016408
     17 H6         -3.4770   -1.1710   -3.2740 hc        1 MOL      0.022547
     18 H7         -1.9270   -0.5190   -3.2070 hc        1 MOL      0.022547
     19 N2         -2.9350   -4.1510   -0.6570 n         1 MOL     -0.389783
     20 C7         -3.8590   -5.1880    0.0400 c3        1 MOL      0.091946
     21 C8         -4.6660   -4.7110    1.2370 c         1 MOL      0.360036
     22 O5         -5.6590   -5.3550    1.5590 o         1 MOL     -0.557771
     23 C9         -3.0750   -6.4830    0.3640 c3        1 MOL     -0.212737
     24 C10        -2.6100   -7.3480   -0.8260 c3        1 MOL      0.036238
     25 C11        -3.7350   -7.7490   -1.7990 c3        1 MOL     -0.140649
     26 C12        -4.9910   -8.3990   -1.2360 c3        1 MOL      0.230342
     27 N3         -6.1080   -8.4640   -2.2260 n4        1 MOL     -0.443015
     28 H8         -1.9680   -4.4280   -0.6580 hn        1 MOL      0.319169
     29 H9         -4.6420   -5.4540   -0.6840 h1        1 MOL      0.048103
     30 H10        -3.6660   -7.2160    0.9070 hc        1 MOL      0.093493
     31 H11        -2.1730   -6.1570    0.8780 hc        1 MOL      0.093493
     32 H12        -2.1080   -8.2330   -0.4430 hc        1 MOL      0.037611
     33 H13        -1.8940   -6.7920   -1.4420 hc        1 MOL      0.037611
     34 H14        -3.3930   -8.4350   -2.5680 hc        1 MOL      0.030779
     35 H15        -3.9570   -6.8620   -2.3810 hc        1 MOL      0.030779
     36 H16        -5.2750   -7.9550   -0.2740 hx        1 MOL      0.044312
     37 H17        -4.8290   -9.4320   -0.9200 hx        1 MOL      0.044312
     38 H18        -6.3320   -7.5450   -2.5790 hn        1 MOL      0.343318
     39 H19        -5.8640   -8.9810   -3.0630 hn        1 MOL      0.343318
     40 H20        -6.9680   -8.9050   -1.9060 hn        1 MOL      0.343318
     41 N4         -4.3420   -3.6100    1.8520 n         1 MOL     -0.145441
     42 C13        -5.1350   -2.8900    2.8640 c3        1 MOL      0.014027
     43 C14        -6.1440   -1.9200    2.1340 c         1 MOL      0.402551
     44 O6         -7.1360   -1.5070    2.7360 o         1 MOL     -0.520058
     45 C15        -4.1930   -2.2140    3.8680 c3        1 MOL     -0.303190
     46 C16        -3.1900   -1.3570    3.2030 c         1 MOL      0.869119
     47 O7         -3.2560   -0.1180    3.1870 o         1 MOL     -0.790573
     48 O8         -2.1730   -1.8520    2.6320 o         1 MOL     -0.790573
     49 H21        -3.4560   -3.1700    1.6370 hn        1 MOL      0.156948
     50 H22        -5.7310   -3.6140    3.4080 h1        1 MOL      0.107663
     51 H23        -3.7670   -2.9190    4.5760 hc        1 MOL      0.094653
     52 H24        -4.8920   -1.5800    4.4200 hc        1 MOL      0.094653
     53 N5         -5.8610   -1.4520    0.8870 n         1 MOL     -0.055515
     54 C17        -6.7330   -0.6230    0.0400 c3        1 MOL     -0.364025
     55 C18        -6.6420    0.9070    0.2430 c         1 MOL      0.640393
     56 O9         -7.6120    1.5430   -0.2090 o         1 MOL     -0.578775
     57 H25        -5.0450   -1.7890    0.3970 hn        1 MOL      0.121770
     58 H26        -7.7830   -0.8910    0.1890 h1        1 MOL      0.157097
     59 H27        -6.5680   -0.7260   -1.0380 h1        1 MOL      0.157097
     60 N6         -5.6210    1.4730    0.9730 n         1 MOL     -0.360474
     61 C19        -5.5210    2.9730    1.3260 c3        1 MOL     -0.087169
     62 C20        -4.9770    3.9010    0.3080 c         1 MOL      0.383281
     63 O10        -4.9020    5.0830    0.5970 o         1 MOL     -0.476428
     64 C21        -4.6630    3.0670    2.6450 c3        1 MOL     -0.070175
     65 C22        -3.2160    2.8020    2.5640 c         1 MOL      0.533433
     66 N7         -2.4710    2.8680    3.6590 n         1 MOL     -0.535821
     67 O11        -2.6820    2.5890    1.4960 o         1 MOL     -0.494256
     68 H28        -4.9500    0.8390    1.3770 hn        1 MOL      0.223567
     69 H29        -6.4840    3.4360    1.5010 h1        1 MOL      0.141321
     70 H30        -5.1420    2.4710    3.4180 hc        1 MOL      0.045153
     71 H31        -4.7350    4.1060    2.9740 hc        1 MOL      0.045153
     72 H32        -2.9850    2.9630    4.5170 hn        1 MOL      0.285097
     73 H33        -1.5260    3.2040    3.5990 hn        1 MOL      0.285097
     74 N8         -4.6150    3.4060   -0.8870 n         1 MOL     -0.125059
     75 C23        -4.4250    4.1820   -2.0570 c3        1 MOL     -0.446207
     76 C24        -2.9140    4.4580   -2.2480 c         1 MOL      0.703390
     77 O12        -2.5410    4.9150   -3.3220 o         1 MOL     -0.613953
     78 H34        -4.5530    2.4030   -0.9670 hn        1 MOL      0.324005
     79 H35        -4.9480    5.1340   -2.0230 h1        1 MOL      0.168636
     80 H36        -4.7590    3.5010   -2.8500 h1        1 MOL      0.168636
     81 N9         -2.1050    4.0300   -1.3040 n         1 MOL     -0.309868
     82 C25        -0.6110    4.2110   -1.3600 c3        1 MOL      0.145974
     83 C26         0.1640    2.8770   -1.0950 c         1 MOL      0.505850
     84 O13        -0.3550    1.9200   -0.4660 o         1 MOL     -0.674265
     85 C27        -0.2370    5.2470   -0.3520 c3        1 MOL     -0.045501
     86 C28        -0.8000    6.5890   -0.7010 ca        1 MOL      0.148827
     87 C29        -1.9730    7.0240   -0.1290 ca        1 MOL     -0.271625
     88 C30        -0.0380    7.4020   -1.5770 ca        1 MOL     -0.271625
     89 C31        -2.4560    8.3270   -0.3410 ca        1 MOL     -0.182502
     90 C32        -0.5830    8.7050   -1.8890 ca        1 MOL     -0.182502
     91 C33        -1.7790    9.1690   -1.2540 ca        1 MOL      0.266236
     92 O14        -2.2740   10.4070   -1.5390 oh        1 MOL     -0.448473
     93 H37        -2.5050    3.4900   -0.5530 hn        1 MOL      0.176224
     94 H38        -0.4230    4.5600   -2.3830 h1        1 MOL      0.028093
     95 H39         0.8530    5.3180   -0.4150 hc        1 MOL      0.009602
     96 H40        -0.4390    5.0210    0.6890 hc        1 MOL      0.009602
     97 H41        -2.5460    6.3590    0.5090 ha        1 MOL      0.158530
     98 H42         0.8850    7.0780   -2.0400 ha        1 MOL      0.158530
     99 H43        -3.3300    8.6800    0.1950 ha        1 MOL      0.130498
    100 H44        -0.0130    9.4360   -2.4450 ha        1 MOL      0.130498
    101 H45        -1.7590   10.7570   -2.2750 ho        1 MOL      0.333982
    102 N10         1.3630    2.7760   -1.6410 n         1 MOL     -0.445515
    103 C34         2.2920    1.6830   -1.3690 c3        1 MOL     -0.018569
    104 C35         3.6590    2.3180   -0.9510 c         1 MOL      0.625731
    105 O15         4.2500    3.1110   -1.6680 o         1 MOL     -0.547361
    106 C36         2.4040    0.8530   -2.7310 c3        1 MOL     -0.071433
    107 C37         1.2470   -0.0900   -2.7330 c3        1 MOL      0.217740
    108 C38         3.7060    0.0800   -2.7690 c3        1 MOL     -0.051584
    109 C39         1.3450   -1.0530   -3.9140 c3        1 MOL     -0.451292
    110 H46         1.6720    3.5010   -2.2830 hn        1 MOL      0.299543
    111 H47         1.8720    0.9960   -0.6340 h1        1 MOL     -0.026010
    112 H48         2.3340    1.5240   -3.5930 hc        1 MOL      0.047079
    113 H49         0.3570    0.5300   -2.8510 hc        1 MOL      0.040160
    114 H50         1.1900   -0.6240   -1.7840 hc        1 MOL      0.040160
    115 H51         3.5890   -0.7250   -2.0340 hc        1 MOL      0.019940
    116 H52         3.8880   -0.3100   -3.7670 hc        1 MOL      0.019940
    117 H53         4.5570    0.7560   -2.6860 hc        1 MOL      0.019940
    118 H54         1.8060   -2.0170   -3.7020 hc        1 MOL      0.104380
    119 H55         0.3550   -1.4360   -4.1530 hc        1 MOL      0.104380
    120 H56         1.6950   -0.4440   -4.7530 hc        1 MOL      0.104380
    121 N11         4.1710    1.8490    0.2240 n         1 MOL     -0.509578
    122 C40         5.5500    2.1100    0.6870 c3        1 MOL     -0.054745
    123 C41         6.5770    1.2220    0.0550 c         1 MOL      0.660829
    124 O16         6.2900    0.1460   -0.3670 o         1 MOL     -0.478666
    125 C42         5.6410    2.0080    2.2130 c3        1 MOL      0.126722
    126 O17         5.2400    0.6730    2.6030 oh        1 MOL     -0.613898
    127 H57         3.5390    1.2830    0.7780 hn        1 MOL      0.372165
    128 H58         5.8010    3.1370    0.4130 h1        1 MOL      0.073362
    129 H59         4.9980    2.7730    2.6710 h1        1 MOL      0.035540
    130 H60         6.6590    2.2080    2.5490 h1        1 MOL      0.035540
    131 H61         4.2830    0.6410    2.5680 ho        1 MOL      0.436410
    132 N12         7.8570    1.6730    0.1270 n         1 MOL     -0.669239
    133 C43         8.9750    0.8240   -0.3240 c3        1 MOL      0.340868
    134 C44         9.0430   -0.5420    0.3150 c         1 MOL      0.529791
    135 O18         9.7360   -1.3410   -0.2020 o         1 MOL     -0.546216
    136 C45        10.2230    1.6560   -0.0730 c3        1 MOL     -0.262055
    137 H62         8.0880    2.5230    0.6080 hn        1 MOL      0.316999
    138 H63         8.9760    0.6550   -1.4020 h1        1 MOL      0.031562
    139 H64        10.1590    2.6230   -0.5610 hc        1 MOL      0.071671
    140 H65        10.3120    1.6920    1.0160 hc        1 MOL      0.071671
    141 H66        11.0550    1.1990   -0.6000 hc        1 MOL      0.071671
    142 N13         8.3690   -0.7140    1.4670 n         1 MOL     -0.603914
    143 C46         8.2810   -1.9970    2.1610 c3        1 MOL      0.421986
    144 C47         7.1450   -2.9140    1.6250 c         1 MOL      0.208766
    145 O19         7.2980   -4.1250    1.7690 o         1 MOL     -0.514204
    146 C48         8.2120   -1.7610    3.7000 c3        1 MOL     -0.353987
    147 H67         7.9110    0.1010    1.8340 hn        1 MOL      0.355698
    148 H68         9.1520   -2.6550    2.0970 h1        1 MOL      0.026999
    149 H69         8.0250   -2.7520    4.1210 hc        1 MOL      0.088711
    150 H70         9.1410   -1.3310    4.0600 hc        1 MOL      0.088711
    151 H71         7.3250   -1.1600    3.8860 hc        1 MOL      0.088711
    152 N14         6.1590   -2.2960    1.0870 n         1 MOL      0.147890
    153 C49         5.0660   -2.9260    0.3780 c3        1 MOL     -0.200235
    154 C50         5.4720   -3.4020   -1.0030 c         1 MOL      0.510088
    155 O20         5.0380   -4.4740   -1.3920 o         1 MOL     -0.555732
    156 C51         3.7210   -2.1120    0.2730 c3        1 MOL      0.013281
    157 C52         3.0660   -1.9570    1.6530 c3        1 MOL     -0.153243
    158 C53         2.2310   -0.6990    1.7050 c         1 MOL      0.862575
    159 O21         2.6500    0.3850    2.1240 o         1 MOL     -0.791808
    160 O22         1.0020   -0.8530    1.4010 o         1 MOL     -0.791808
    161 H72         6.2070   -1.2950    1.0680 hn        1 MOL     -0.132701
    162 H73         4.8580   -3.8550    0.9180 h1        1 MOL      0.115990
    163 H74         3.0300   -2.5710   -0.4390 hc        1 MOL      0.085565
    164 H75         4.0180   -1.0930    0.0340 hc        1 MOL      0.085565
    165 H76         3.6560   -1.9610    2.5650 hc        1 MOL      0.040482
    166 H77         2.4240   -2.8240    1.8620 hc        1 MOL      0.040482
    167 N15         6.3870   -2.7040   -1.6740 n         1 MOL     -0.152118
    168 C54         6.7720   -3.0010   -3.0190 c3        1 MOL     -0.221087
    169 H78         6.0170   -2.6180   -3.7060 h1        1 MOL      0.093010
    170 H79         7.7310   -2.5310   -3.2350 h1        1 MOL      0.093010
    171 H80         6.8600   -4.0800   -3.1420 h1        1 MOL      0.093010
    172 H81         6.6480   -1.8150   -1.2750 hn        1 MOL      0.171042
    173 Ca1        -1.1360    0.4360    1.6070 Ca        1 MOL      1.794144
    174 O23        -0.5880    0.2900    4.3080 oh        1 MOL     -0.875917
    175 H82        -1.1060   -0.0380    5.0470 ho        1 MOL      0.423763
    176 H83         0.3230    0.1160    4.5600 ho        1 MOL      0.423763
    177 O24         0.8580    2.2910    2.2180 oh        1 MOL     -0.875917
    178 H84         1.2310    3.1510    2.3820 ho        1 MOL      0.423763
    179 H85         1.6040    1.6950    2.3000 ho        1 MOL      0.423763
@<TRIPOS>BOND
     1    1    2 1   
     2    1    4 1   
     3    1    5 1   
     4    1    6 1   
     5    2    3 2   
     6    2    7 1   
     7    7    8 1   
     8    7   15 1   
     9    8    9 1   
    10    8   11 1   
    11    8   16 1   
    12    9   10 2   
    13    9   19 1   
    14   11   12 1   
    15   11   17 1   
    16   11   18 1   
    17   12   13 1   
    18   12   14 1   
    19   19   20 1   
    20   19   28 1   
    21   20   21 1   
    22   20   23 1   
    23   20   29 1   
    24   21   22 2   
    25   21   41 1   
    26   23   24 1   
    27   23   30 1   
    28   23   31 1   
    29   24   25 1   
    30   24   32 1   
    31   24   33 1   
    32   25   26 1   
    33   25   34 1   
    34   25   35 1   
    35   26   27 1   
    36   26   36 1   
    37   26   37 1   
    38   27   38 1   
    39   27   39 1   
    40   27   40 1   
    41   41   42 1   
    42   41   49 1   
    43   42   43 1   
    44   42   45 1   
    45   42   50 1   
    46   43   44 2   
    47   43   53 1   
    48   45   46 1   
    49   45   51 1   
    50   45   52 1   
    51   46   47 1   
    52   46   48 1   
    53   53   54 1   
    54   53   57 1   
    55   54   55 1   
    56   54   58 1   
    57   54   59 1   
    58   55   56 2   
    59   55   60 1   
    60   60   61 1   
    61   60   68 1   
    62   61   62 1   
    63   61   64 1   
    64   61   69 1   
    65   62   63 2   
    66   62   74 1   
    67   64   65 1   
    68   64   70 1   
    69   64   71 1   
    70   65   66 1   
    71   65   67 2   
    72   66   72 1   
    73   66   73 1   
    74   74   75 1   
    75   74   78 1   
    76   75   76 1   
    77   75   79 1   
    78   75   80 1   
    79   76   77 2   
    80   76   81 1   
    81   81   82 1   
    82   81   93 1   
    83   82   83 1   
    84   82   85 1   
    85   82   94 1   
    86   83   84 2   
    87   83  102 1   
    88   85   86 1   
    89   85   95 1   
    90   85   96 1   
    91   86   87 ar  
    92   86   88 ar  
    93   87   89 ar  
    94   87   97 1   
    95   88   90 ar  
    96   88   98 1   
    97   89   91 ar  
    98   89   99 1   
    99   90   91 ar  
   100   90  100 1   
   101   91   92 1   
   102   92  101 1   
   103  102  103 1   
   104  102  110 1   
   105  103  104 1   
   106  103  106 1   
   107  103  111 1   
   108  104  105 2   
   109  104  121 1   
   110  106  107 1   
   111  106  108 1   
   112  106  112 1   
   113  107  109 1   
   114  107  113 1   
   115  107  114 1   
   116  108  115 1   
   117  108  116 1   
   118  108  117 1   
   119  109  118 1   
   120  109  119 1   
   121  109  120 1   
   122  121  122 1   
   123  121  127 1   
   124  122  123 1   
   125  122  125 1   
   126  122  128 1   
   127  123  124 2   
   128  123  132 1   
   129  125  126 1   
   130  125  129 1   
   131  125  130 1   
   132  126  131 1   
   133  132  133 1   
   134  132  137 1   
   135  133  134 1   
   136  133  136 1   
   137  133  138 1   
   138  134  135 2   
   139  134  142 1   
   140  136  139 1   
   141  136  140 1   
   142  136  141 1   
   143  142  143 1   
   144  142  147 1   
   145  143  144 1   
   146  143  146 1   
   147  143  148 1   
   148  144  145 2   
   149  144  152 1   
   150  146  149 1   
   151  146  150 1   
   152  146  151 1   
   153  152  153 1   
   154  152  161 1   
   155  153  154 1   
   156  153  156 1   
   157  153  162 1   
   158  154  155 2   
   159  154  167 1   
   160  156  157 1   
   161  156  163 1   
   162  156  164 1   
   163  157  158 1   
   164  157  165 1   
   165  157  166 1   
   166  158  159 1   
   167  158  160 1   
   168  167  168 1   
   169  167  172 1   
   170  168  169 1   
   171  168  170 1   
   172  168  171 1   
   173  174  175 1   
   174  174  176 1   
   175  177  178 1   
   176  177  179 1   
@<TRIPOS>SUBSTRUCTURE
     1 MOL         1 TEMP              0 ****  ****    0 ROOT
