@<TRIPOS>MOLECULE
MOL
  189   185     1     0     0
SMALL
resp


@<TRIPOS>ATOM
      1 C1          0.1900    2.8490    5.5680 c3        1 MOL     -0.258542
      2 C2         -0.3010    2.5850    4.1350 c         1 MOL      0.727927
      3 O1          0.4390    2.9530    3.2490 o         1 MOL     -0.648899
      4 H1          1.0580    3.5070    5.5380 hc        1 MOL      0.063367
      5 H2         -0.6050    3.3220    6.1430 hc        1 MOL      0.063367
      6 H3          0.4670    1.9040    6.0370 hc        1 MOL      0.063367
      7 N1         -1.5230    2.1150    3.8840 n         1 MOL     -0.588538
      8 C3         -2.1660    1.9440    2.5040 c3        1 MOL      0.349010
      9 C4         -2.5570    3.3150    1.7920 c         1 MOL      0.285590
     10 O2         -3.5030    4.0400    2.2200 o         1 MOL     -0.530681
     11 C5         -3.4390    1.1320    2.5280 c3        1 MOL     -0.623937
     12 C6         -3.9940    0.6830    1.1990 c         1 MOL      1.005554
     13 O3         -5.0160   -0.0300    1.1680 o         1 MOL     -0.793435
     14 O4         -3.4020    0.9330    0.1080 o         1 MOL     -0.793435
     15 H4         -2.0070    1.7240    4.6750 hn        1 MOL      0.302322
     16 H5         -1.4340    1.4270    1.8910 h1        1 MOL     -0.025667
     17 H6         -4.2730    1.6130    3.0360 hc        1 MOL      0.169913
     18 H7         -3.1250    0.1880    2.9630 hc        1 MOL      0.169913
     19 N2         -1.7880    3.6850    0.7970 n         1 MOL     -0.093258
     20 C7         -1.9460    4.9000    0.0290 c3        1 MOL     -0.009551
     21 C8         -2.9570    4.8050   -1.1140 c         1 MOL      0.638946
     22 O5         -3.0340    5.6980   -1.9070 o         1 MOL     -0.588549
     23 C9         -0.5260    5.4570   -0.4370 c3        1 MOL     -0.167833
     24 C10         0.0630    6.4380    0.6170 c3        1 MOL      0.186397
     25 C11         1.4630    7.0090    0.1030 c3        1 MOL      0.111220
     26 C12         2.2220    7.9250    1.0200 c3        1 MOL     -0.340877
     27 N3          2.5280    7.3330    2.3020 n4        1 MOL     -0.146567
     28 H8         -1.1170    3.0430    0.4040 hn        1 MOL      0.217761
     29 H9         -2.4290    5.5700    0.7350 h1        1 MOL      0.038927
     30 H10        -0.6300    5.9040   -1.4220 hc        1 MOL      0.061284
     31 H11         0.1630    4.6190   -0.5330 hc        1 MOL      0.061284
     32 H12         0.2400    5.9000    1.5440 hc        1 MOL     -0.032255
     33 H13        -0.6150    7.2840    0.7460 hc        1 MOL     -0.032255
     34 H14         1.3160    7.5100   -0.8560 hc        1 MOL      0.004931
     35 H15         2.0330    6.0890   -0.0110 hc        1 MOL      0.004931
     36 H16         1.5460    8.7750    1.0320 hx        1 MOL      0.166873
     37 H17         3.1580    7.9760    0.4550 hx        1 MOL      0.166873
     38 H18         3.2120    7.8140    2.8820 hn        1 MOL      0.294190
     39 H19         1.6850    7.2100    2.8380 hn        1 MOL      0.294190
     40 H20         2.9980    6.4560    2.1610 hn        1 MOL      0.294190
     41 N4         -3.7180    3.7470   -1.1970 n         1 MOL     -0.346816
     42 C13        -4.8210    3.5650   -2.2180 c3        1 MOL     -0.126610
     43 C14        -6.1290    3.1540   -1.4990 c         1 MOL      0.391756
     44 O6         -7.2260    3.1570   -2.0820 o         1 MOL     -0.523612
     45 C15        -4.4330    2.4280   -3.1660 c3        1 MOL      0.297881
     46 C16        -2.9980    2.3070   -3.5140 c         1 MOL      0.594017
     47 O7         -2.4690    3.1830   -4.2650 o         1 MOL     -0.641054
     48 O8         -2.3310    1.2800   -3.1450 o         1 MOL     -0.641054
     49 H21        -3.4180    2.9150   -0.7180 hn        1 MOL      0.149401
     50 H22        -4.9190    4.4570   -2.8390 h1        1 MOL      0.138354
     51 H23        -4.9640    2.6140   -4.0950 hc        1 MOL     -0.067706
     52 H24        -4.6490    1.4340   -2.7670 hc        1 MOL     -0.067706
     53 N5         -6.1720    2.5240   -0.3210 n         1 MOL     -0.176271
     54 C17        -7.3640    1.8340    0.3270 c3        1 MOL     -0.193696
     55 C18        -7.7540    0.5550   -0.4300 c         1 MOL      0.460739
     56 O9         -8.9280    0.1450   -0.5230 o         1 MOL     -0.568577
     57 H25        -5.3620    2.4310    0.2720 hn        1 MOL      0.119368
     58 H26        -8.1460    2.5940    0.3700 h1        1 MOL      0.119321
     59 H27        -7.1390    1.4990    1.3340 h1        1 MOL      0.119321
     60 N6         -6.7350   -0.1140   -1.0170 n         1 MOL     -0.177820
     61 C19        -6.9880   -1.2910   -1.8700 c3        1 MOL     -0.106127
     62 C20        -7.1900   -2.5520   -1.0000 c         1 MOL      0.484765
     63 O10        -7.6300   -3.5950   -1.4920 o         1 MOL     -0.547094
     64 C21        -5.9040   -1.4860   -2.9430 c3        1 MOL     -0.327049
     65 C22        -4.4720   -1.6160   -2.4700 c         1 MOL      0.933091
     66 O11        -3.5360   -1.2760   -3.2130 o         1 MOL     -0.823937
     67 O12        -4.1040   -2.0150   -1.3710 o         1 MOL     -0.823937
     68 H28        -5.8520    0.2170   -0.6820 hn        1 MOL      0.319932
     69 H29        -7.9070   -1.2140   -2.4530 h1        1 MOL      0.152495
     70 H30        -5.9370   -0.7240   -3.7180 hc        1 MOL      0.093962
     71 H31        -6.1450   -2.4560   -3.3680 hc        1 MOL      0.093962
     72 N7         -7.0240   -2.4460    0.3200 n         1 MOL     -0.334786
     73 C23        -7.0320   -3.6150    1.2790 c3        1 MOL     -0.077964
     74 C24        -5.7060   -4.3530    1.2510 c         1 MOL      0.576400
     75 O13        -5.7830   -5.4710    1.7190 o         1 MOL     -0.573915
     76 H32        -6.6110   -1.5660    0.5940 hn        1 MOL      0.273310
     77 H33        -7.9340   -4.2130    1.1390 h1        1 MOL      0.089511
     78 H34        -7.1070   -3.2250    2.2890 h1        1 MOL      0.089511
     79 N8         -4.5740   -3.8360    0.7620 n         1 MOL     -0.296518
     80 C25        -3.1910   -4.4410    1.0790 c3        1 MOL     -0.271522
     81 C26        -2.1300   -3.3230    1.2600 c         1 MOL      0.715235
     82 O14        -2.1840   -2.1940    0.7600 o         1 MOL     -0.619634
     83 C27        -2.7280   -5.2390   -0.1490 c3        1 MOL      0.510809
     84 C28        -3.5240   -6.5290   -0.4420 c3        1 MOL     -0.575646
     85 O15        -2.7570   -4.3930   -1.2010 oh        1 MOL     -0.611198
     86 H35        -4.5590   -2.9330    0.2970 hn        1 MOL      0.244430
     87 H36        -3.3670   -5.1640    1.8790 h1        1 MOL      0.128121
     88 H37        -1.6960   -5.5660    0.0060 h1        1 MOL     -0.019187
     89 H38        -3.5250   -3.8420   -1.0250 ho        1 MOL      0.378323
     90 H39        -3.3640   -7.0990    0.4840 hc        1 MOL      0.153610
     91 H40        -4.5500   -6.2690   -0.7150 hc        1 MOL      0.153610
     92 H41        -3.0800   -6.9970   -1.3190 hc        1 MOL      0.153610
     93 N9         -0.9810   -3.7200    1.7810 n         1 MOL     -0.656615
     94 C29         0.1860   -2.8710    1.9650 c3        1 MOL      0.103139
     95 C30         1.3640   -3.5320    1.1550 c         1 MOL      0.528131
     96 O16         1.6610   -4.7160    1.3700 o         1 MOL     -0.542948
     97 C31         0.4990   -2.7650    3.5800 c3        1 MOL      0.116998
     98 C32        -0.5740   -2.1030    4.4540 c3        1 MOL      0.100768
     99 C33         1.8770   -2.0970    3.7220 c3        1 MOL     -0.202892
    100 C34        -0.4650   -2.3380    5.9990 c3        1 MOL     -0.281916
    101 H42        -0.9720   -4.6260    2.2410 hn        1 MOL      0.311216
    102 H43         0.0970   -1.8440    1.6120 h1        1 MOL      0.087794
    103 H44         0.6210   -3.8090    3.8760 hc        1 MOL      0.007540
    104 H45        -1.5450   -2.4700    4.1270 hc        1 MOL     -0.014128
    105 H46        -0.6500   -1.0360    4.2480 hc        1 MOL     -0.014128
    106 H47         1.8630   -1.2920    2.9890 hc        1 MOL      0.032372
    107 H48         2.0860   -1.5670    4.6510 hc        1 MOL      0.032372
    108 H49         2.7370   -2.7350    3.4990 hc        1 MOL      0.032372
    109 H50        -0.3550   -3.3700    6.3330 hc        1 MOL      0.072127
    110 H51         0.4810   -1.9100    6.3260 hc        1 MOL      0.072127
    111 H52        -1.3270   -1.8690    6.4770 hc        1 MOL      0.072127
    112 N10         2.1000   -2.6580    0.4330 n         1 MOL     -0.252727
    113 C35         3.3650   -2.9170   -0.2580 c3        1 MOL      0.015582
    114 C36         4.6100   -2.5150    0.4800 c         1 MOL      0.412824
    115 O17         4.6140   -1.7120    1.4570 o         1 MOL     -0.375882
    116 C37         3.3680   -2.2690   -1.6690 c3        1 MOL      0.137247
    117 C38         2.4250   -2.9280   -2.5630 c3        1 MOL     -0.253573
    118 O18         3.0670   -0.8930   -1.6970 oh        1 MOL     -0.515527
    119 H53         1.8500   -1.6860    0.3010 hn        1 MOL      0.194363
    120 H54         3.4040   -4.0110   -0.3680 h1        1 MOL      0.070074
    121 H55         4.3490   -2.3760   -2.1330 h1        1 MOL      0.067062
    122 H56         2.1770   -0.8500   -1.3400 ho        1 MOL      0.335641
    123 H57         2.3670   -2.5310   -3.5810 hc        1 MOL      0.075981
    124 H58         2.7350   -3.9650   -2.6840 hc        1 MOL      0.075981
    125 H59         1.4450   -2.9840   -2.0910 hc        1 MOL      0.075981
    126 N11         5.7150   -3.1220    0.1160 n         1 MOL     -0.417268
    127 C39         7.0420   -2.7050    0.5100 c3        1 MOL     -0.052076
    128 C40         7.4190   -1.3160    0.0980 c         1 MOL      0.367119
    129 O19         8.2860   -0.7390    0.6680 o         1 MOL     -0.511086
    130 C41         8.0390   -3.6580   -0.1190 c3        1 MOL      0.357484
    131 C42         7.9710   -5.0650    0.4830 c3        1 MOL     -0.352818
    132 O20         8.0140   -3.7060   -1.5090 oh        1 MOL     -0.656465
    133 H60         5.7240   -3.8430   -0.5950 hn        1 MOL      0.308374
    134 H61         7.2590   -2.6580    1.5770 h1        1 MOL      0.120630
    135 H62         9.0260   -3.3170    0.2010 h1        1 MOL      0.004195
    136 H63         8.8650   -4.0190   -1.8110 ho        1 MOL      0.424875
    137 H64         8.9000   -5.5670    0.2410 hc        1 MOL      0.094963
    138 H65         7.8610   -5.0780    1.5740 hc        1 MOL      0.094963
    139 H66         7.1560   -5.6100   -0.0130 hc        1 MOL      0.094963
    140 N12         6.6920   -0.7900   -0.8640 n         1 MOL      0.033368
    141 C43         6.7820    0.5950   -1.3390 c3        1 MOL     -0.003471
    142 C44         6.2620    1.4700   -0.2590 c         1 MOL      0.401497
    143 O21         7.0370    2.2270    0.3130 o         1 MOL     -0.495283
    144 C45         6.1990    0.8180   -2.7460 c3        1 MOL     -0.012592
    145 C46         6.8440   -0.0250   -3.8330 c3        1 MOL     -0.049149
    146 C47         8.3640   -0.2880   -3.7580 c3        1 MOL     -0.175286
    147 C48         9.1380    1.0390   -3.9210 c3        1 MOL      0.085934
    148 N13         9.1760    1.5450   -5.3110 n4        1 MOL     -0.306491
    149 H67         5.9660   -1.3370   -1.2920 hn        1 MOL      0.052312
    150 H68         7.8390    0.8540   -1.3960 h1        1 MOL      0.014210
    151 H69         6.1500    1.8830   -2.9440 hc        1 MOL      0.033291
    152 H70         5.1340    0.6060   -2.7860 hc        1 MOL      0.033291
    153 H71         6.5080    0.2770   -4.8280 hc        1 MOL      0.039273
    154 H72         6.3310   -0.9700   -3.6520 hc        1 MOL      0.039273
    155 H73         8.5840   -0.9910   -4.5590 hc        1 MOL      0.073318
    156 H74         8.5590   -0.8470   -2.8470 hc        1 MOL      0.073318
    157 H75        10.1580    0.8000   -3.6270 hx        1 MOL      0.079703
    158 H76         8.8130    1.8220   -3.2360 hx        1 MOL      0.079703
    159 H77         8.3130    1.2800   -5.7580 hn        1 MOL      0.262630
    160 H78         9.3370    2.5370   -5.3710 hn        1 MOL      0.262630
    161 H79         9.9040    1.1370   -5.8900 hn        1 MOL      0.262630
    162 N14         4.9550    1.3190   -0.0570 n         1 MOL     -0.229670
    163 C49         4.2080    1.9990    0.9870 c3        1 MOL     -0.213781
    164 C50         4.8810    2.0190    2.4030 c         1 MOL      0.464395
    165 O22         4.7790    3.0150    3.0720 o         1 MOL     -0.547504
    166 C51         2.8750    1.3420    1.1320 c3        1 MOL      0.037891
    167 C52         1.8810    1.7920    0.0150 c3        1 MOL      0.002953
    168 C53         0.6720    0.9630   -0.1990 c         1 MOL      0.801334
    169 O23        -0.3990    1.4900   -0.5230 o         1 MOL     -0.750043
    170 O24         0.7460   -0.2760   -0.2660 o         1 MOL     -0.750043
    171 H80         4.4150    0.6820   -0.6320 hn        1 MOL      0.190906
    172 H81         4.0590    3.0420    0.7030 h1        1 MOL      0.119143
    173 H82         2.4630    1.5790    2.1100 hc        1 MOL      0.019403
    174 H83         3.0050    0.2540    1.1550 hc        1 MOL      0.019403
    175 H84         2.4550    1.8830   -0.9050 hc        1 MOL     -0.027125
    176 H85         1.5910    2.8030    0.2720 hc        1 MOL     -0.027125
    177 N15         5.4510    0.8610    2.8560 n         1 MOL     -0.030885
    178 C54         6.2110    0.7810    4.0600 c3        1 MOL     -0.220221
    179 H86         7.2610    0.6170    3.8170 h1        1 MOL      0.089363
    180 H87         6.1090    1.7120    4.6180 h1        1 MOL      0.089363
    181 H88         5.8450   -0.0480    4.6670 h1        1 MOL      0.089363
    182 H89         5.1590    0.0390    2.3480 hn        1 MOL      0.096419
    183 Ca1        -1.7990   -0.5710   -1.4520 Ca        1 MOL      1.758701
    184 O25         0.3820   -0.1050   -3.1650 oh        1 MOL     -0.806919
    185 H90         0.4230    0.8500   -3.2560 ho        1 MOL      0.396674
    186 H91         0.7280   -0.4340   -3.9910 ho        1 MOL      0.396674
    187 O26        -0.9260   -2.9680   -2.6460 oh        1 MOL     -0.806919
    188 H92        -1.1660   -3.2260   -3.5370 ho        1 MOL      0.396674
    189 H93        -1.3730   -3.6120   -2.0860 ho        1 MOL      0.396674
@<TRIPOS>BOND
     1    1    2 1   
     2    1    4 1   
     3    1    5 1   
     4    1    6 1   
     5    2    3 2   
     6    2    7 1   
     7    7    8 1   
     8    7   15 1   
     9    8    9 1   
    10    8   11 1   
    11    8   16 1   
    12    9   10 2   
    13    9   19 1   
    14   11   12 1   
    15   11   17 1   
    16   11   18 1   
    17   12   13 1   
    18   12   14 1   
    19   19   20 1   
    20   19   28 1   
    21   20   21 1   
    22   20   23 1   
    23   20   29 1   
    24   21   22 2   
    25   21   41 1   
    26   23   24 1   
    27   23   30 1   
    28   23   31 1   
    29   24   25 1   
    30   24   32 1   
    31   24   33 1   
    32   25   26 1   
    33   25   34 1   
    34   25   35 1   
    35   26   27 1   
    36   26   36 1   
    37   26   37 1   
    38   27   38 1   
    39   27   39 1   
    40   27   40 1   
    41   41   42 1   
    42   41   49 1   
    43   42   43 1   
    44   42   45 1   
    45   42   50 1   
    46   43   44 2   
    47   43   53 1   
    48   45   46 1   
    49   45   51 1   
    50   45   52 1   
    51   46   47 1   
    52   46   48 1   
    53   53   54 1   
    54   53   57 1   
    55   54   55 1   
    56   54   58 1   
    57   54   59 1   
    58   55   56 2   
    59   55   60 1   
    60   60   61 1   
    61   60   68 1   
    62   61   62 1   
    63   61   64 1   
    64   61   69 1   
    65   62   63 2   
    66   62   72 1   
    67   64   65 1   
    68   64   70 1   
    69   64   71 1   
    70   65   66 1   
    71   65   67 1   
    72   72   73 1   
    73   72   76 1   
    74   73   74 1   
    75   73   77 1   
    76   73   78 1   
    77   74   75 2   
    78   74   79 1   
    79   79   80 1   
    80   79   86 1   
    81   80   81 1   
    82   80   83 1   
    83   80   87 1   
    84   81   82 2   
    85   81   93 1   
    86   83   84 1   
    87   83   85 1   
    88   83   88 1   
    89   84   90 1   
    90   84   91 1   
    91   84   92 1   
    92   85   89 1   
    93   93   94 1   
    94   93  101 1   
    95   94   95 1   
    96   94   97 1   
    97   94  102 1   
    98   95   96 2   
    99   95  112 1   
   100   97   98 1   
   101   97   99 1   
   102   97  103 1   
   103   98  100 1   
   104   98  104 1   
   105   98  105 1   
   106   99  106 1   
   107   99  107 1   
   108   99  108 1   
   109  100  109 1   
   110  100  110 1   
   111  100  111 1   
   112  112  113 1   
   113  112  119 1   
   114  113  114 1   
   115  113  116 1   
   116  113  120 1   
   117  114  115 2   
   118  114  126 1   
   119  116  117 1   
   120  116  118 1   
   121  116  121 1   
   122  117  123 1   
   123  117  124 1   
   124  117  125 1   
   125  118  122 1   
   126  126  127 1   
   127  126  133 1   
   128  127  128 1   
   129  127  130 1   
   130  127  134 1   
   131  128  129 2   
   132  128  140 1   
   133  130  131 1   
   134  130  132 1   
   135  130  135 1   
   136  131  137 1   
   137  131  138 1   
   138  131  139 1   
   139  132  136 1   
   140  140  141 1   
   141  140  149 1   
   142  141  142 1   
   143  141  144 1   
   144  141  150 1   
   145  142  143 2   
   146  142  162 1   
   147  144  145 1   
   148  144  151 1   
   149  144  152 1   
   150  145  146 1   
   151  145  153 1   
   152  145  154 1   
   153  146  147 1   
   154  146  155 1   
   155  146  156 1   
   156  147  148 1   
   157  147  157 1   
   158  147  158 1   
   159  148  159 1   
   160  148  160 1   
   161  148  161 1   
   162  162  163 1   
   163  162  171 1   
   164  163  164 1   
   165  163  166 1   
   166  163  172 1   
   167  164  165 2   
   168  164  177 1   
   169  166  167 1   
   170  166  173 1   
   171  166  174 1   
   172  167  168 1   
   173  167  175 1   
   174  167  176 1   
   175  168  169 1   
   176  168  170 1   
   177  177  178 1   
   178  177  182 1   
   179  178  179 1   
   180  178  180 1   
   181  178  181 1   
   182  184  185 1   
   183  184  186 1   
   184  187  188 1   
   185  187  189 1   
@<TRIPOS>SUBSTRUCTURE
     1 MOL         1 TEMP              0 ****  ****    0 ROOT
