@<TRIPOS>MOLECULE
MOL
  175   173     1     0     0
SMALL
resp


@<TRIPOS>ATOM
      1 C1          0.4150    4.3220    5.2530 c3        1 MOL     -0.373049
      2 C2         -0.2170    4.0490    3.8570 c         1 MOL      0.719386
      3 O1          0.4270    4.3660    2.8460 o         1 MOL     -0.564008
      4 H1          0.7140    5.3680    5.3170 hc        1 MOL      0.091976
      5 H2         -0.3150    4.1050    6.0320 hc        1 MOL      0.091976
      6 H3          1.2900    3.6850    5.3870 hc        1 MOL      0.091976
      7 N1         -1.5100    3.6330    3.7780 n         1 MOL     -0.676241
      8 C3         -2.2620    3.3530    2.5330 c3        1 MOL      0.285094
      9 C4         -2.4760    4.5840    1.6320 c         1 MOL      0.598541
     10 O2         -2.9690    5.6200    2.1500 o         1 MOL     -0.594357
     11 C5         -3.5570    2.7290    2.9150 c3        1 MOL     -0.363343
     12 C6         -4.2510    2.1790    1.6810 c         1 MOL      0.699013
     13 O3         -3.5700    1.7860    0.6790 o         1 MOL     -0.642153
     14 O4         -5.5070    2.2750    1.5560 o         1 MOL     -0.642153
     15 H4         -2.0210    3.4650    4.6280 hn        1 MOL      0.333641
     16 H5         -1.6770    2.6890    1.9040 h1        1 MOL     -0.005521
     17 H6         -4.2350    3.4310    3.3890 hc        1 MOL      0.068137
     18 H7         -3.4370    1.9090    3.6290 hc        1 MOL      0.068137
     19 N2         -2.2380    4.4290    0.3390 n         1 MOL     -0.451470
     20 C7         -2.5550    5.3920   -0.6920 c3        1 MOL      0.237508
     21 C8         -3.8630    5.0090   -1.4710 c         1 MOL      0.500993
     22 O5         -4.4820    5.9320   -1.9970 o         1 MOL     -0.592294
     23 C9         -1.3270    5.4540   -1.6870 c3        1 MOL     -0.189541
     24 H8         -1.7690    3.5760    0.0650 hn        1 MOL      0.228017
     25 H9         -2.7340    6.3790   -0.2660 h1        1 MOL      0.010319
     26 H10        -0.3860    5.2780   -1.1560 hc        1 MOL      0.045431
     27 H11        -1.3890    4.6250   -2.3890 hc        1 MOL      0.045431
     28 H12        -1.3810    6.3190   -2.3380 hc        1 MOL      0.045431
     29 N3         -4.2330    3.7320   -1.6240 n         1 MOL     -0.312200
     30 C10        -4.9530    3.1440   -2.7530 c3        1 MOL      0.065442
     31 C11        -6.2260    2.3290   -2.3910 c         1 MOL      0.298144
     32 O6         -7.0530    2.0110   -3.2940 o         1 MOL     -0.558535
     33 C12        -3.9500    2.2900   -3.5630 c3        1 MOL     -0.120252
     34 C13        -3.1700    1.2590   -2.7590 c         1 MOL      0.670001
     35 O7         -1.9440    1.2260   -2.5890 o         1 MOL     -0.699182
     36 O8         -3.8570    0.4610   -2.0310 o         1 MOL     -0.699182
     37 H13        -3.7780    3.1540   -0.9350 hn        1 MOL      0.237514
     38 H14        -5.2020    3.8570   -3.5380 h1        1 MOL      0.104240
     39 H15        -3.2930    3.0280   -4.0250 hc        1 MOL      0.029785
     40 H16        -4.4300    1.7810   -4.4000 hc        1 MOL      0.029785
     41 N4         -6.4520    1.9940   -1.1440 n         1 MOL     -0.079076
     42 C14        -7.5810    1.1320   -0.6210 c3        1 MOL     -0.200862
     43 C15        -7.4300   -0.3520   -1.1150 c         1 MOL      0.417583
     44 O9         -8.5070   -1.0720   -1.0770 o         1 MOL     -0.596281
     45 H17        -5.6730    2.0990   -0.5170 hn        1 MOL      0.058728
     46 H18        -8.4790    1.4950   -1.1300 h1        1 MOL      0.130767
     47 H19        -7.7700    1.1500    0.4420 h1        1 MOL      0.130767
     48 N5         -6.3200   -0.8300   -1.6610 n         1 MOL     -0.040406
     49 C16        -6.1750   -2.2560   -2.0080 c3        1 MOL     -0.268165
     50 C17        -6.1260   -3.2510   -0.8460 c         1 MOL      0.520834
     51 O10        -6.2170   -4.4620   -1.0190 o         1 MOL     -0.535878
     52 C18        -5.0070   -2.5210   -3.0320 c3        1 MOL     -0.074234
     53 C19        -3.6370   -2.2850   -2.4690 c         1 MOL      0.562702
     54 N6         -2.5690   -2.3890   -3.2440 n         1 MOL     -0.546082
     55 O11        -3.3310   -2.1690   -1.2950 o         1 MOL     -0.433975
     56 H20        -5.4820   -0.3190   -1.8890 hn        1 MOL      0.186243
     57 H21        -7.0870   -2.5450   -2.5360 h1        1 MOL      0.143231
     58 H22        -5.0510   -1.8660   -3.8960 hc        1 MOL      0.053499
     59 H23        -4.9280   -3.5110   -3.4650 hc        1 MOL      0.053499
     60 H24        -2.5660   -2.6040   -4.2260 hn        1 MOL      0.276550
     61 H25        -1.6490   -2.2450   -2.8610 hn        1 MOL      0.276550
     62 N7         -5.9890   -2.7020    0.3660 n         1 MOL     -0.197058
     63 C20        -5.8960   -3.4530    1.6230 c3        1 MOL     -0.306355
     64 C21        -4.5870   -4.2470    1.8900 c         1 MOL      0.559807
     65 O12        -4.6210   -5.1980    2.5570 o         1 MOL     -0.564176
     66 H26        -5.8530   -1.7060    0.3710 hn        1 MOL      0.233614
     67 H27        -6.6910   -4.2010    1.6310 h1        1 MOL      0.116112
     68 H28        -5.9620   -2.8030    2.4950 h1        1 MOL      0.116112
     69 N8         -3.5260   -3.8900    1.1720 n         1 MOL      0.107522
     70 C22        -2.2530   -4.5060    1.3660 c3        1 MOL     -0.452267
     71 C23        -1.1910   -3.4100    1.4840 c         1 MOL      0.594657
     72 O13        -1.3550   -2.3810    0.8590 o         1 MOL     -0.619125
     73 C24        -1.8340   -5.4340    0.2170 c3        1 MOL      0.747688
     74 C25        -2.6220   -6.7080    0.1660 c3        1 MOL     -0.477079
     75 O14        -1.9710   -4.8550   -1.0780 oh        1 MOL     -0.671650
     76 H29        -3.6210   -3.0890    0.5750 hn        1 MOL     -0.076302
     77 H30        -2.2620   -5.0370    2.3110 h1        1 MOL      0.090576
     78 H31        -0.7940   -5.6780    0.4440 h1        1 MOL     -0.084573
     79 H32        -2.4580   -4.0280   -1.0040 ho        1 MOL      0.346528
     80 H33        -2.0050   -7.4280   -0.3730 hc        1 MOL      0.100799
     81 H34        -2.8100   -7.1280    1.1510 hc        1 MOL      0.100799
     82 H35        -3.6060   -6.5610   -0.2910 hc        1 MOL      0.100799
     83 N9         -0.1430   -3.6630    2.2420 n         1 MOL     -0.355147
     84 C26         0.9450   -2.7730    2.2270 c3        1 MOL     -0.126245
     85 C27         1.6760   -3.1820    0.9230 c         1 MOL      0.531428
     86 O15         2.2720   -4.2650    0.7710 o         1 MOL     -0.585909
     87 C28         1.7610   -2.8990    3.5650 c3        1 MOL      0.164590
     88 C29         0.9050   -2.2950    4.6620 c3        1 MOL      0.291731
     89 C30         3.0700   -2.1700    3.4750 c3        1 MOL     -0.308532
     90 C31         1.5170   -2.6210    6.0260 c3        1 MOL     -0.279954
     91 H36        -0.0130   -4.5270    2.7450 hn        1 MOL      0.273316
     92 H37         0.5510   -1.7820    2.0080 h1        1 MOL      0.034497
     93 H38         1.8850   -3.9700    3.7460 hc        1 MOL     -0.013023
     94 H39        -0.1060   -2.6810    4.5860 hc        1 MOL     -0.080193
     95 H40         0.9340   -1.2220    4.4810 hc        1 MOL     -0.080193
     96 H41         3.0330   -1.1370    3.8170 hc        1 MOL      0.071329
     97 H42         3.8260   -2.6000    4.1380 hc        1 MOL      0.071329
     98 H43         3.3980   -2.3140    2.4460 hc        1 MOL      0.071329
     99 H44         0.7830   -2.1750    6.6920 hc        1 MOL      0.052606
    100 H45         1.6600   -3.6890    6.1970 hc        1 MOL      0.052606
    101 H46         2.4550   -2.0780    6.1080 hc        1 MOL      0.052606
    102 N10         1.8140   -2.1710    0.0570 n         1 MOL     -0.211692
    103 C32         2.7050   -2.0840   -1.1440 c3        1 MOL     -0.010004
    104 C33         4.0690   -1.4380   -0.8650 c         1 MOL      0.480350
    105 O16         4.2760   -0.8150    0.1570 o         1 MOL     -0.322359
    106 C34         2.0210   -1.2070   -2.2020 c3        1 MOL     -0.351851
    107 C35         0.5800   -1.5810   -2.5770 c         1 MOL      0.812045
    108 O17        -0.4260   -1.2720   -1.9140 o         1 MOL     -0.685674
    109 O18         0.4100   -2.0370   -3.7130 o         1 MOL     -0.685674
    110 H47         1.4460   -1.2800    0.3320 hn        1 MOL      0.202130
    111 H48         2.8210   -3.0820   -1.5560 h1        1 MOL      0.092334
    112 H49         2.6350   -1.2790   -3.0980 hc        1 MOL      0.072764
    113 H50         2.1270   -0.1770   -1.8810 hc        1 MOL      0.072764
    114 N11         5.1060   -1.7880   -1.7090 n         1 MOL     -0.650928
    115 C36         6.4590   -1.2250   -1.4540 c3        1 MOL      0.421292
    116 C37         6.5460    0.3390   -1.1120 c         1 MOL      0.232743
    117 O19         7.3080    0.5900   -0.1610 o         1 MOL     -0.511118
    118 C38         7.4430   -1.5360   -2.5510 c3        1 MOL     -0.366484
    119 C39         8.9510   -1.5760   -2.1190 ca        1 MOL      0.265714
    120 C40         9.4120   -2.7150   -1.4840 ca        1 MOL     -0.271159
    121 C41         9.8740   -0.6130   -2.5980 ca        1 MOL     -0.271159
    122 C42        10.7630   -2.7920   -1.1310 ca        1 MOL      0.006058
    123 C43        11.1900   -0.7190   -2.2440 ca        1 MOL      0.006058
    124 C44        11.6570   -1.8090   -1.5310 ca        1 MOL     -0.239022
    125 H51         4.9890   -2.3260   -2.5580 hn        1 MOL      0.342331
    126 H52         6.7870   -1.7660   -0.5730 h1        1 MOL      0.024464
    127 H53         7.2010   -0.8950   -3.3990 hc        1 MOL      0.083985
    128 H54         7.2000   -2.5770   -2.7760 hc        1 MOL      0.083985
    129 H55         8.7050   -3.4440   -1.1340 ha        1 MOL      0.144367
    130 H56         9.5930    0.1920   -3.2640 ha        1 MOL      0.144367
    131 H57        11.0950   -3.6490   -0.5730 ha        1 MOL      0.081843
    132 H58        11.8590    0.0380   -2.6190 ha        1 MOL      0.081843
    133 H59        12.6850   -1.8640   -1.2100 ha        1 MOL      0.125571
    134 N12         6.0210    1.2600   -1.8900 n         1 MOL      0.025457
    135 C45         6.2860    2.6710   -1.5950 c3        1 MOL     -0.027406
    136 C46         5.6390    3.1940   -0.2750 c         1 MOL      0.320168
    137 O20         5.9470    4.2730    0.2150 o         1 MOL     -0.492983
    138 C47         5.6660    3.3720   -2.8110 c3        1 MOL     -0.206766
    139 C48         4.5130    2.4370   -3.3280 c3        1 MOL     -0.001892
    140 C49         5.2530    1.1400   -3.1070 c3        1 MOL      0.014536
    141 H60         7.3480    2.8760   -1.6330 h1        1 MOL      0.097068
    142 H61         5.2330    4.3400   -2.5230 hc        1 MOL      0.076648
    143 H62         6.3860    3.5240   -3.6080 hc        1 MOL      0.076648
    144 H63         3.6740    2.4780   -2.6370 hc        1 MOL      0.041766
    145 H64         4.2290    2.5600   -4.3720 hc        1 MOL      0.041766
    146 H65         4.4910    0.3710   -3.0130 h1        1 MOL      0.017816
    147 H66         5.9280    0.8920   -3.9230 h1        1 MOL      0.017816
    148 N13         4.6440    2.4440    0.2810 n         1 MOL     -0.055061
    149 C50         4.1040    2.5820    1.6070 c3        1 MOL     -0.195744
    150 C51         4.9340    1.7790    2.6880 c         1 MOL      0.557368
    151 O21         4.9860    2.2500    3.7980 o         1 MOL     -0.565188
    152 C52         2.6690    1.9340    1.6820 c3        1 MOL      0.004881
    153 C53         1.6740    2.4080    0.5480 c3        1 MOL     -0.138960
    154 C54         0.4340    1.5370    0.5330 c         1 MOL      0.567892
    155 O22        -0.5650    1.9900   -0.0380 o         1 MOL     -0.625467
    156 O23         0.3860    0.3750    0.9390 o         1 MOL     -0.625467
    157 H67         4.4370    1.6130   -0.2400 hn        1 MOL      0.154132
    158 H68         4.0800    3.6350    1.8640 h1        1 MOL      0.133876
    159 H69         2.2400    2.1740    2.6610 hc        1 MOL      0.033194
    160 H70         2.7360    0.8440    1.6680 hc        1 MOL      0.033194
    161 H71         2.1510    2.4100   -0.4260 hc        1 MOL      0.071536
    162 H72         1.4090    3.4460    0.7700 hc        1 MOL      0.071536
    163 N14         5.6900    0.6960    2.3400 n         1 MOL     -0.193461
    164 C55         6.6410   -0.0060    3.1900 c3        1 MOL     -0.149314
    165 H73         7.0260    0.6780    3.9470 h1        1 MOL      0.069726
    166 H74         6.1430   -0.8440    3.6790 h1        1 MOL      0.069726
    167 H75         7.4660   -0.3770    2.5830 h1        1 MOL      0.069726
    168 H76         5.3910    0.2340    1.4940 hn        1 MOL      0.113511
    169 Ca1        -2.0470   -0.0510   -0.1770 Ca        1 MOL      1.661371
    170 O24        -3.9550   -1.0840    1.5240 oh        1 MOL     -0.784801
    171 H77        -3.3520   -1.1640    2.2660 ho        1 MOL      0.388260
    172 H78        -4.7180   -0.6250    1.8950 ho        1 MOL      0.388260
    173 O25        -1.8310    0.0070    2.6140 oh        1 MOL     -0.784801
    174 H79        -0.9230   -0.0400    2.3460 ho        1 MOL      0.388260
    175 H80        -1.8040    0.2530    3.5370 ho        1 MOL      0.388260
@<TRIPOS>BOND
     1    1    2 1   
     2    1    4 1   
     3    1    5 1   
     4    1    6 1   
     5    2    3 2   
     6    2    7 1   
     7    7    8 1   
     8    7   15 1   
     9    8    9 1   
    10    8   11 1   
    11    8   16 1   
    12    9   10 2   
    13    9   19 1   
    14   11   12 1   
    15   11   17 1   
    16   11   18 1   
    17   12   13 1   
    18   12   14 1   
    19   19   20 1   
    20   19   24 1   
    21   20   21 1   
    22   20   23 1   
    23   20   25 1   
    24   21   22 2   
    25   21   29 1   
    26   23   26 1   
    27   23   27 1   
    28   23   28 1   
    29   29   30 1   
    30   29   37 1   
    31   30   31 1   
    32   30   33 1   
    33   30   38 1   
    34   31   32 2   
    35   31   41 1   
    36   33   34 1   
    37   33   39 1   
    38   33   40 1   
    39   34   35 1   
    40   34   36 1   
    41   41   42 1   
    42   41   45 1   
    43   42   43 1   
    44   42   46 1   
    45   42   47 1   
    46   43   44 2   
    47   43   48 1   
    48   48   49 1   
    49   48   56 1   
    50   49   50 1   
    51   49   52 1   
    52   49   57 1   
    53   50   51 2   
    54   50   62 1   
    55   52   53 1   
    56   52   58 1   
    57   52   59 1   
    58   53   54 1   
    59   53   55 2   
    60   54   60 1   
    61   54   61 1   
    62   62   63 1   
    63   62   66 1   
    64   63   64 1   
    65   63   67 1   
    66   63   68 1   
    67   64   65 2   
    68   64   69 1   
    69   69   70 1   
    70   69   76 1   
    71   70   71 1   
    72   70   73 1   
    73   70   77 1   
    74   71   72 2   
    75   71   83 1   
    76   73   74 1   
    77   73   75 1   
    78   73   78 1   
    79   74   80 1   
    80   74   81 1   
    81   74   82 1   
    82   75   79 1   
    83   83   84 1   
    84   83   91 1   
    85   84   85 1   
    86   84   87 1   
    87   84   92 1   
    88   85   86 2   
    89   85  102 1   
    90   87   88 1   
    91   87   89 1   
    92   87   93 1   
    93   88   90 1   
    94   88   94 1   
    95   88   95 1   
    96   89   96 1   
    97   89   97 1   
    98   89   98 1   
    99   90   99 1   
   100   90  100 1   
   101   90  101 1   
   102  102  103 1   
   103  102  110 1   
   104  103  104 1   
   105  103  106 1   
   106  103  111 1   
   107  104  105 2   
   108  104  114 1   
   109  106  107 1   
   110  106  112 1   
   111  106  113 1   
   112  107  108 1   
   113  107  109 1   
   114  114  115 1   
   115  114  125 1   
   116  115  116 1   
   117  115  118 1   
   118  115  126 1   
   119  116  117 2   
   120  116  134 1   
   121  118  119 1   
   122  118  127 1   
   123  118  128 1   
   124  119  120 ar  
   125  119  121 ar  
   126  120  122 ar  
   127  120  129 1   
   128  121  123 ar  
   129  121  130 1   
   130  122  124 ar  
   131  122  131 1   
   132  123  124 ar  
   133  123  132 1   
   134  124  133 1   
   135  134  135 1   
   136  134  140 1   
   137  135  136 1   
   138  135  138 1   
   139  135  141 1   
   140  136  137 2   
   141  136  148 1   
   142  138  139 1   
   143  138  142 1   
   144  138  143 1   
   145  139  140 1   
   146  139  144 1   
   147  139  145 1   
   148  140  146 1   
   149  140  147 1   
   150  148  149 1   
   151  148  157 1   
   152  149  150 1   
   153  149  152 1   
   154  149  158 1   
   155  150  151 2   
   156  150  163 1   
   157  152  153 1   
   158  152  159 1   
   159  152  160 1   
   160  153  154 1   
   161  153  161 1   
   162  153  162 1   
   163  154  155 1   
   164  154  156 1   
   165  163  164 1   
   166  163  168 1   
   167  164  165 1   
   168  164  166 1   
   169  164  167 1   
   170  170  171 1   
   171  170  172 1   
   172  173  174 1   
   173  173  175 1   
@<TRIPOS>SUBSTRUCTURE
     1 MOL         1 TEMP              0 ****  ****    0 ROOT
