@<TRIPOS>MOLECULE
MOL
  189   185     1     0     0
SMALL
resp


@<TRIPOS>ATOM
      1 C1          1.0010   -4.9010    5.8300 c3        1 MOL     -0.395481
      2 C2          1.1920   -4.1330    4.4940 c         1 MOL      0.724670
      3 O1          1.1870   -2.8860    4.4860 o         1 MOL     -0.605166
      4 H1          1.2000   -4.2310    6.6660 hc        1 MOL      0.101511
      5 H2         -0.0240   -5.2680    5.8960 hc        1 MOL      0.101511
      6 H3          1.6920   -5.7420    5.8680 hc        1 MOL      0.101511
      7 N1          1.4970   -4.8620    3.4030 n         1 MOL     -0.622299
      8 C3          2.1080   -4.2250    2.2380 c3        1 MOL      0.276187
      9 C4          1.9530   -5.0610    0.9490 c         1 MOL      0.363408
     10 O2          2.3960   -6.2250    1.0000 o         1 MOL     -0.584634
     11 C5          3.5660   -3.9960    2.4880 c3        1 MOL     -0.157935
     12 C6          4.2070   -3.0780    1.4230 c         1 MOL      0.663761
     13 O3          5.4010   -2.7000    1.5690 o         1 MOL     -0.679514
     14 O4          3.5210   -2.5300    0.5130 o         1 MOL     -0.679514
     15 H4          1.4290   -5.8630    3.4140 hn        1 MOL      0.324409
     16 H5          1.5500   -3.3130    2.0660 h1        1 MOL     -0.009737
     17 H6          4.0870   -4.8970    2.8240 hc        1 MOL      0.047409
     18 H7          3.7040   -3.3970    3.3910 hc        1 MOL      0.047409
     19 N2          1.4480   -4.5540   -0.1440 n         1 MOL     -0.072416
     20 C7          1.3650   -5.2370   -1.4170 c3        1 MOL     -0.134905
     21 C8          2.4910   -4.9000   -2.4230 c         1 MOL      0.614194
     22 O5          2.7830   -5.7580   -3.2380 o         1 MOL     -0.588681
     23 C9         -0.0700   -5.0170   -1.9780 c3        1 MOL      0.180402
     24 C10        -1.0800   -5.6180   -0.9710 c3        1 MOL     -0.092612
     25 C11        -0.2120   -5.5550   -3.4350 c3        1 MOL     -0.284087
     26 C12        -2.4870   -5.0860   -1.3430 c3        1 MOL     -0.223908
     27 H8          1.3580   -3.5480   -0.1860 hn        1 MOL      0.156477
     28 H9          1.3660   -6.3190   -1.2910 h1        1 MOL      0.073843
     29 H10        -0.2890   -3.9480   -1.9790 hc        1 MOL      0.027264
     30 H11        -0.9350   -5.3120    0.0610 hc        1 MOL      0.025740
     31 H12        -1.0620   -6.6960   -1.0960 hc        1 MOL      0.025740
     32 H13        -1.1490   -5.2470   -3.8880 hc        1 MOL      0.065310
     33 H14         0.5600   -5.1780   -4.1150 hc        1 MOL      0.065310
     34 H15        -0.0940   -6.6370   -3.5730 hc        1 MOL      0.065310
     35 H16        -2.5050   -3.9960   -1.4400 hc        1 MOL      0.063971
     36 H17        -2.9530   -5.6150   -2.1790 hc        1 MOL      0.063971
     37 H18        -3.1990   -5.3170   -0.5480 hc        1 MOL      0.063971
     38 N3          3.2250   -3.7820   -2.3240 n         1 MOL     -0.432497
     39 C13         4.1220   -3.3180   -3.3850 c3        1 MOL      0.027794
     40 C14         5.5220   -2.8100   -3.0250 c         1 MOL      0.391132
     41 O6          6.3240   -2.8260   -3.9670 o         1 MOL     -0.514331
     42 C15         3.4040   -2.2170   -4.1910 c3        1 MOL     -0.184360
     43 C16         3.0270   -0.9540   -3.4120 c         1 MOL      0.683100
     44 O7          3.3790   -0.8100   -2.2150 o         1 MOL     -0.678571
     45 O8          2.2660   -0.1290   -3.9200 o         1 MOL     -0.678571
     46 H19         3.1290   -3.2820   -1.4500 hn        1 MOL      0.238853
     47 H20         4.2910   -4.1600   -4.0500 h1        1 MOL      0.088479
     48 H21         2.4790   -2.6730   -4.5440 hc        1 MOL      0.054108
     49 H22         3.9980   -1.9830   -5.0840 hc        1 MOL      0.054108
     50 N4          5.7570   -2.4920   -1.7340 n         1 MOL     -0.132412
     51 C17         7.0120   -2.0120   -1.2560 c3        1 MOL     -0.163420
     52 C18         7.4310   -0.6620   -1.8390 c         1 MOL      0.436648
     53 O9          8.5140   -0.5160   -2.3660 o         1 MOL     -0.561969
     54 H23         4.9810   -2.6900   -1.1160 hn        1 MOL      0.163429
     55 H24         7.8050   -2.7150   -1.5290 h1        1 MOL      0.087496
     56 H25         7.0580   -1.8860   -0.1710 h1        1 MOL      0.087496
     57 N5          6.5270    0.3390   -1.7770 n         1 MOL     -0.169813
     58 C19         6.7790    1.8030   -2.0980 c3        1 MOL      0.048726
     59 C20         7.1930    2.5670   -0.8420 c         1 MOL      0.377577
     60 O10         7.8500    3.6010   -0.8660 o         1 MOL     -0.549870
     61 C21         5.5860    2.5010   -2.7750 c3        1 MOL     -0.395821
     62 C22         4.2590    2.2390   -2.0110 c         1 MOL      0.826842
     63 O11         4.1410    1.6290   -0.8910 o         1 MOL     -0.692121
     64 O12         3.2020    2.7350   -2.5150 o         1 MOL     -0.692121
     65 H26         5.6660    0.1130   -1.3030 hn        1 MOL      0.173612
     66 H27         7.5700    1.8010   -2.8540 h1        1 MOL      0.092585
     67 H28         5.4610    2.1550   -3.7980 hc        1 MOL      0.118611
     68 H29         5.7550    3.5760   -2.6720 hc        1 MOL      0.118611
     69 N6          6.7130    2.0260    0.2600 n         1 MOL     -0.203040
     70 C23         6.8030    2.6300    1.6800 c3        1 MOL     -0.066780
     71 C24         5.6290    3.6400    1.8760 c         1 MOL      0.477640
     72 O13         5.6640    4.5600    2.7060 o         1 MOL     -0.589974
     73 H30         6.0930    1.2360    0.1970 hn        1 MOL      0.142328
     74 H31         7.6860    3.2640    1.8360 h1        1 MOL      0.074292
     75 H32         6.8380    1.8580    2.4500 h1        1 MOL      0.074292
     76 N7          4.4580    3.3850    1.2810 n         1 MOL     -0.136992
     77 C25         3.1960    4.1710    1.4570 c3        1 MOL     -0.196756
     78 C26         1.9880    3.2960    1.6130 c         1 MOL      0.462037
     79 O14         2.0520    2.1180    1.2160 o         1 MOL     -0.491515
     80 C27         3.0150    5.2160    0.3880 c3        1 MOL      0.163137
     81 C28         4.1630    6.2190    0.4180 c3        1 MOL     -0.430455
     82 C29         3.9000    7.3460   -0.6130 c         1 MOL      0.622667
     83 N8          4.1330    6.9600   -1.8680 n         1 MOL     -0.724297
     84 O15         3.4150    8.4400   -0.3610 o         1 MOL     -0.558686
     85 H33         4.3660    2.6000    0.6580 hn        1 MOL      0.100013
     86 H34         3.3320    4.6950    2.3930 h1        1 MOL      0.110669
     87 H35         2.0650    5.7230    0.5610 hc        1 MOL      0.031762
     88 H36         2.9150    4.7610   -0.5940 hc        1 MOL      0.031762
     89 H37         5.1200    5.6950    0.3250 hc        1 MOL      0.133074
     90 H38         4.1360    6.5990    1.4330 hc        1 MOL      0.133074
     91 H39         4.4370    5.9990   -1.9990 hn        1 MOL      0.339200
     92 H40         4.3990    7.7140   -2.4770 hn        1 MOL      0.339200
     93 N9          0.9450    3.6670    2.3640 n         1 MOL     -0.371873
     94 C30        -0.2160    2.8430    2.6480 c3        1 MOL      0.188876
     95 C31        -1.3950    3.2950    1.8390 c         1 MOL      0.258093
     96 O16        -1.8630    4.4560    1.9340 o         1 MOL     -0.544345
     97 C32        -0.4940    2.8370    4.1770 c3        1 MOL      0.400429
     98 C33        -1.9320    2.3640    4.5790 c3        1 MOL     -0.475941
     99 C34         0.5720    1.9780    4.8760 c3        1 MOL     -0.475941
    100 H41         1.0100    4.5000    2.9280 hn        1 MOL      0.225750
    101 H42         0.0590    1.8080    2.4220 h1        1 MOL     -0.016635
    102 H43        -0.4720    3.8700    4.5370 hc        1 MOL     -0.050366
    103 H44        -2.7420    3.0110    4.2660 hc        1 MOL      0.105402
    104 H45        -2.0320    1.3780    4.1350 hc        1 MOL      0.105402
    105 H46        -1.9890    2.0260    5.6180 hc        1 MOL      0.105402
    106 H47         0.5460    0.9240    4.5890 hc        1 MOL      0.105402
    107 H48         1.4910    2.5290    4.6690 hc        1 MOL      0.105402
    108 H49         0.3370    1.9860    5.9340 hc        1 MOL      0.105402
    109 N10        -1.8710    2.3260    1.0450 n         1 MOL     -0.071705
    110 C35        -3.0940    2.5040    0.2150 c3        1 MOL      0.198634
    111 C36        -4.3870    2.1890    0.9400 c         1 MOL      0.215220
    112 O17        -4.3580    1.6000    2.0130 o         1 MOL     -0.357268
    113 C37        -2.8570    1.6540   -1.1020 c3        1 MOL     -0.162948
    114 C38        -3.9330    1.7740   -2.1800 c         1 MOL      0.667228
    115 N11        -4.1820    2.9660   -2.5800 n         1 MOL     -0.687269
    116 O18        -4.5750    0.8950   -2.7040 o         1 MOL     -0.547304
    117 H50        -1.3280    1.4850    0.9130 hn        1 MOL      0.153301
    118 H51        -3.1040    3.5740   -0.0050 h1        1 MOL      0.020530
    119 H52        -2.7000    0.5900   -0.9520 hc        1 MOL      0.062001
    120 H53        -1.9190    2.0330   -1.5070 hc        1 MOL      0.062001
    121 H54        -3.7340    3.8240   -2.3010 hn        1 MOL      0.317250
    122 H55        -4.9300    3.0060   -3.2580 hn        1 MOL      0.317250
    123 N12        -5.5590    2.4570    0.3490 n         1 MOL     -0.162384
    124 C39        -6.9290    2.1090    0.8290 c3        1 MOL      0.079411
    125 C40        -7.0180    0.5480    0.8170 c         1 MOL      0.446305
    126 O19        -7.5690    0.0120    1.7520 o         1 MOL     -0.572918
    127 C41        -8.0900    2.7990   -0.0290 c3        1 MOL     -0.227942
    128 C42        -7.8000    2.8760   -1.5630 ca        1 MOL     -0.062950
    129 C43        -7.1010    3.9150   -2.1540 ca        1 MOL      0.004486
    130 C44        -8.3640    1.8530   -2.3130 ca        1 MOL      0.004486
    131 C45        -7.1200    4.0030   -3.5710 ca        1 MOL     -0.428269
    132 C46        -8.1720    1.8430   -3.7300 ca        1 MOL     -0.428269
    133 C47        -7.5850    2.9670   -4.3460 ca        1 MOL      0.529662
    134 O20        -7.2920    2.8170   -5.6230 oh        1 MOL     -0.576080
    135 H56        -5.4220    2.8690   -0.5690 hn        1 MOL      0.051419
    136 H57        -7.0970    2.4110    1.8610 h1        1 MOL      0.070720
    137 H58        -8.2000    3.8110    0.3510 hc        1 MOL      0.094873
    138 H59        -8.9890    2.2000    0.1320 hc        1 MOL      0.094873
    139 H60        -6.6660    4.7300   -1.5890 ha        1 MOL      0.104369
    140 H61        -8.8580    1.0330   -1.8170 ha        1 MOL      0.104369
    141 H62        -6.6400    4.7900   -4.1310 ha        1 MOL      0.158274
    142 H63        -8.4100    0.9600   -4.3060 ha        1 MOL      0.158274
    143 H64        -7.2890    1.8620   -5.6510 ho        1 MOL      0.419572
    144 N13        -6.3500   -0.1570   -0.1050 n         1 MOL     -0.010640
    145 C48        -6.2830   -1.6850   -0.1120 c3        1 MOL     -0.343872
    146 C49        -5.2820   -2.2110    0.9490 c         1 MOL      0.586341
    147 O21        -5.1570   -3.3910    1.1270 o         1 MOL     -0.543394
    148 C50        -5.8730   -2.2320   -1.4700 c3        1 MOL      0.192097
    149 C51        -6.8680   -1.7690   -2.5310 c3        1 MOL     -0.162068
    150 C52        -8.2520   -2.3070   -2.3150 c         1 MOL      0.656309
    151 O22        -9.2070   -1.5510   -2.5750 o         1 MOL     -0.704359
    152 O23        -8.4500   -3.4850   -1.9220 o         1 MOL     -0.704359
    153 H65        -5.9300    0.4150   -0.8110 hn        1 MOL      0.116964
    154 H66        -7.3050   -2.0300    0.0810 h1        1 MOL      0.191899
    155 H67        -5.7800   -3.3160   -1.3750 hc        1 MOL     -0.020891
    156 H68        -4.8960   -1.8300   -1.7360 hc        1 MOL     -0.020891
    157 H69        -6.4670   -2.1990   -3.4550 hc        1 MOL      0.017330
    158 H70        -6.8850   -0.6860   -2.5130 hc        1 MOL      0.017330
    159 N14        -4.4970   -1.3820    1.6210 n         1 MOL     -0.322021
    160 C53        -3.5460   -1.8800    2.6710 c3        1 MOL      0.023499
    161 C54        -3.9410   -1.3850    4.0380 c         1 MOL      0.398742
    162 O24        -3.7500   -2.0590    5.0770 o         1 MOL     -0.574294
    163 C55        -2.1110   -1.3650    2.4460 c3        1 MOL     -0.247324
    164 C56        -1.4700   -1.9560    1.1220 c3        1 MOL     -0.027299
    165 C57        -0.2250   -1.2640    0.6110 c         1 MOL      0.775282
    166 O25         0.5430   -1.8630   -0.1930 o         1 MOL     -0.757132
    167 O26        -0.0230   -0.0610    0.9530 o         1 MOL     -0.757132
    168 H71        -4.4580   -0.3950    1.4490 hn        1 MOL      0.114521
    169 H72        -3.4230   -2.9610    2.7560 h1        1 MOL      0.093574
    170 H73        -1.4800   -1.5900    3.2990 hc        1 MOL      0.112275
    171 H74        -2.0620   -0.2790    2.4200 hc        1 MOL      0.112275
    172 H75        -2.2100   -1.8520    0.3320 hc        1 MOL      0.041342
    173 H76        -1.2450   -3.0190    1.1950 hc        1 MOL      0.041342
    174 N15        -4.6150   -0.2280    4.1170 n         1 MOL      0.016418
    175 C58        -5.2330    0.2830    5.3170 c3        1 MOL     -0.142360
    176 H77        -4.4620    0.5260    6.0470 h1        1 MOL      0.052232
    177 H78        -5.8020    1.1810    5.0780 h1        1 MOL      0.052232
    178 H79        -5.9020   -0.4720    5.7310 h1        1 MOL      0.052232
    179 H80        -4.7430    0.2440    3.2320 hn        1 MOL      0.061050
    180 Ca1         2.5240   -0.1950    0.2260 Ca        1 MOL      1.770578
    181 O27         2.5520   -0.8860    2.7860 oh        1 MOL     -0.866881
    182 O28         1.1840    1.1760   -1.8130 oh        1 MOL     -0.866881
    183 H81         2.3090   -1.6430    3.3120 ho        1 MOL      0.408463
    184 H82         1.5680    0.5810   -2.4560 ho        1 MOL      0.408463
    185 H83         2.8950   -0.2540    3.4220 ho        1 MOL      0.408463
    186 H84         1.6400    2.0020   -1.9560 ho        1 MOL      0.408463
    187 O29         4.9690   -0.1050    1.4120 oh        1 MOL     -0.866881
    188 H85         4.9950    0.1200    2.3360 ho        1 MOL      0.408463
    189 H86         5.3220   -0.9940    1.3700 ho        1 MOL      0.408463
@<TRIPOS>BOND
     1    1    2 1   
     2    1    4 1   
     3    1    5 1   
     4    1    6 1   
     5    2    3 2   
     6    2    7 1   
     7    7    8 1   
     8    7   15 1   
     9    8    9 1   
    10    8   11 1   
    11    8   16 1   
    12    9   10 2   
    13    9   19 1   
    14   11   12 1   
    15   11   17 1   
    16   11   18 1   
    17   12   13 1   
    18   12   14 1   
    19   19   20 1   
    20   19   27 1   
    21   20   21 1   
    22   20   23 1   
    23   20   28 1   
    24   21   22 2   
    25   21   38 1   
    26   23   24 1   
    27   23   25 1   
    28   23   29 1   
    29   24   26 1   
    30   24   30 1   
    31   24   31 1   
    32   25   32 1   
    33   25   33 1   
    34   25   34 1   
    35   26   35 1   
    36   26   36 1   
    37   26   37 1   
    38   38   39 1   
    39   38   46 1   
    40   39   40 1   
    41   39   42 1   
    42   39   47 1   
    43   40   41 2   
    44   40   50 1   
    45   42   43 1   
    46   42   48 1   
    47   42   49 1   
    48   43   44 1   
    49   43   45 1   
    50   50   51 1   
    51   50   54 1   
    52   51   52 1   
    53   51   55 1   
    54   51   56 1   
    55   52   53 2   
    56   52   57 1   
    57   57   58 1   
    58   57   65 1   
    59   58   59 1   
    60   58   61 1   
    61   58   66 1   
    62   59   60 2   
    63   59   69 1   
    64   61   62 1   
    65   61   67 1   
    66   61   68 1   
    67   62   63 1   
    68   62   64 1   
    69   69   70 1   
    70   69   73 1   
    71   70   71 1   
    72   70   74 1   
    73   70   75 1   
    74   71   72 2   
    75   71   76 1   
    76   76   77 1   
    77   76   85 1   
    78   77   78 1   
    79   77   80 1   
    80   77   86 1   
    81   78   79 2   
    82   78   93 1   
    83   80   81 1   
    84   80   87 1   
    85   80   88 1   
    86   81   82 1   
    87   81   89 1   
    88   81   90 1   
    89   82   83 1   
    90   82   84 2   
    91   83   91 1   
    92   83   92 1   
    93   93   94 1   
    94   93  100 1   
    95   94   95 1   
    96   94   97 1   
    97   94  101 1   
    98   95   96 2   
    99   95  109 1   
   100   97   98 1   
   101   97   99 1   
   102   97  102 1   
   103   98  103 1   
   104   98  104 1   
   105   98  105 1   
   106   99  106 1   
   107   99  107 1   
   108   99  108 1   
   109  109  110 1   
   110  109  117 1   
   111  110  111 1   
   112  110  113 1   
   113  110  118 1   
   114  111  112 2   
   115  111  123 1   
   116  113  114 1   
   117  113  119 1   
   118  113  120 1   
   119  114  115 1   
   120  114  116 2   
   121  115  121 1   
   122  115  122 1   
   123  123  124 1   
   124  123  135 1   
   125  124  125 1   
   126  124  127 1   
   127  124  136 1   
   128  125  126 2   
   129  125  144 1   
   130  127  128 1   
   131  127  137 1   
   132  127  138 1   
   133  128  129 ar  
   134  128  130 ar  
   135  129  131 ar  
   136  129  139 1   
   137  130  132 ar  
   138  130  140 1   
   139  131  133 ar  
   140  131  141 1   
   141  132  133 ar  
   142  132  142 1   
   143  133  134 1   
   144  134  143 1   
   145  144  145 1   
   146  144  153 1   
   147  145  146 1   
   148  145  148 1   
   149  145  154 1   
   150  146  147 2   
   151  146  159 1   
   152  148  149 1   
   153  148  155 1   
   154  148  156 1   
   155  149  150 1   
   156  149  157 1   
   157  149  158 1   
   158  150  151 1   
   159  150  152 1   
   160  159  160 1   
   161  159  168 1   
   162  160  161 1   
   163  160  163 1   
   164  160  169 1   
   165  161  162 2   
   166  161  174 1   
   167  163  164 1   
   168  163  170 1   
   169  163  171 1   
   170  164  165 1   
   171  164  172 1   
   172  164  173 1   
   173  165  166 1   
   174  165  167 1   
   175  174  175 1   
   176  174  179 1   
   177  175  176 1   
   178  175  177 1   
   179  175  178 1   
   180  181  183 1   
   181  181  185 1   
   182  182  184 1   
   183  182  186 1   
   184  187  188 1   
   185  187  189 1   
@<TRIPOS>SUBSTRUCTURE
     1 MOL         1 TEMP              0 ****  ****    0 ROOT
