@<TRIPOS>MOLECULE
MOL
  175   173     1     0     0
SMALL
resp


@<TRIPOS>ATOM
      1 C1          0.2250    4.5540    5.1500 c3        1 MOL     -0.300447
      2 C2         -0.5220    4.5380    3.8180 c         1 MOL      0.708453
      3 O1          0.0120    4.8850    2.7920 o         1 MOL     -0.566355
      4 H1         -0.3070    3.9330    5.8710 hc        1 MOL      0.069102
      5 H2          1.2320    4.1630    5.0070 hc        1 MOL      0.069102
      6 H3          0.2810    5.5760    5.5240 hc        1 MOL      0.069102
      7 N1         -1.7270    3.9010    3.7880 n         1 MOL     -0.630936
      8 C3         -2.3640    3.5810    2.5240 c3        1 MOL      0.110505
      9 C4         -2.8430    4.7580    1.5760 c         1 MOL      0.523500
     10 O2         -3.6430    5.6290    1.9900 o         1 MOL     -0.552459
     11 C5         -3.6430    2.6950    2.8510 c3        1 MOL     -0.182582
     12 C6         -4.4140    2.4010    1.5830 c         1 MOL      0.653742
     13 O3         -5.5390    2.9000    1.4200 o         1 MOL     -0.648959
     14 O4         -3.8700    1.8270    0.6320 o         1 MOL     -0.648959
     15 H4         -2.1810    3.6130    4.6450 hn        1 MOL      0.323276
     16 H5         -1.6790    2.9020    2.0300 h1        1 MOL      0.128943
     17 H6         -4.3340    3.1470    3.5690 hc        1 MOL      0.019381
     18 H7         -3.3750    1.7450    3.3290 hc        1 MOL      0.019381
     19 N2         -2.4650    4.6350    0.2900 n         1 MOL     -0.548051
     20 C7         -2.8930    5.5880   -0.8070 c3        1 MOL      0.503583
     21 C8         -3.6350    4.9010   -1.9140 c         1 MOL      0.330667
     22 O5         -3.8250    5.5590   -2.9660 o         1 MOL     -0.587593
     23 C9         -1.6600    6.3440   -1.2480 c3        1 MOL     -0.260475
     24 H8         -1.8520    3.8910   -0.0030 hn        1 MOL      0.289857
     25 H9         -3.5470    6.3700   -0.4100 h1        1 MOL     -0.013365
     26 H10        -1.3310    6.9590   -0.4160 hc        1 MOL      0.050147
     27 H11        -0.8660    5.6600   -1.5350 hc        1 MOL      0.050147
     28 H12        -1.8970    7.1480   -1.9600 hc        1 MOL      0.050147
     29 N3         -4.1900    3.7010   -1.7660 n         1 MOL     -0.173753
     30 C10        -5.1580    3.1450   -2.7760 c3        1 MOL     -0.029718
     31 C11        -6.4040    2.3200   -2.3030 c         1 MOL      0.349802
     32 O6         -7.3230    2.1520   -3.1500 o         1 MOL     -0.556853
     33 C12        -4.3400    2.3150   -3.8090 c3        1 MOL     -0.039653
     34 C13        -3.4780    1.2840   -3.1300 c         1 MOL      0.645366
     35 O7         -3.8040    0.6140   -2.1070 o         1 MOL     -0.688173
     36 O8         -2.3340    1.1730   -3.6470 o         1 MOL     -0.688173
     37 H13        -4.1570    3.2960   -0.8390 hn        1 MOL      0.134107
     38 H14        -5.5570    3.9420   -3.4080 h1        1 MOL      0.089160
     39 H15        -3.8080    2.9290   -4.5330 hc        1 MOL      0.022080
     40 H16        -5.0640    1.7420   -4.3840 hc        1 MOL      0.022080
     41 N4         -6.4020    1.8160   -1.0750 n         1 MOL     -0.120980
     42 C14        -7.3480    0.7800   -0.5860 c3        1 MOL     -0.259877
     43 C15        -7.1500   -0.6980   -0.9400 c         1 MOL      0.616950
     44 O9         -8.1580   -1.3860   -0.7020 o         1 MOL     -0.653722
     45 H17        -5.6260    2.0050   -0.4520 hn        1 MOL      0.173653
     46 H18        -8.3350    1.0320   -0.9860 h1        1 MOL      0.121584
     47 H19        -7.3770    0.8340    0.5020 h1        1 MOL      0.121584
     48 N5         -6.0800   -1.2000   -1.5320 n         1 MOL     -0.309956
     49 C16        -6.0850   -2.6100   -1.9960 c3        1 MOL      0.049764
     50 C17        -5.8970   -3.6950   -0.9630 c         1 MOL      0.435849
     51 O10        -5.5420   -4.8010   -1.3740 o         1 MOL     -0.532840
     52 C18        -4.9340   -2.8300   -3.0250 c3        1 MOL     -0.215221
     53 C19        -3.5580   -2.6720   -2.4670 c         1 MOL      0.680024
     54 N6         -2.5580   -3.0630   -3.2750 n         1 MOL     -0.648056
     55 O11        -3.2780   -2.2810   -1.3490 o         1 MOL     -0.720857
     56 H20        -5.3100   -0.6090   -1.7920 hn        1 MOL      0.261906
     57 H21        -6.9970   -2.8430   -2.5370 h1        1 MOL      0.091230
     58 H22        -5.0080   -2.1360   -3.8580 hc        1 MOL      0.063503
     59 H23        -4.8760   -3.8430   -3.4330 hc        1 MOL      0.063503
     60 H24        -2.8600   -3.3220   -4.1990 hn        1 MOL      0.320597
     61 H25        -1.5900   -2.9370   -3.0020 hn        1 MOL      0.320597
     62 N7         -6.0320   -3.3210    0.2680 n         1 MOL     -0.301069
     63 C20        -5.9480   -4.3010    1.4210 c3        1 MOL     -0.271372
     64 C21        -4.5360   -4.5520    1.9090 c         1 MOL      0.438732
     65 O12        -4.2860   -4.9800    3.0620 o         1 MOL     -0.588862
     66 H26        -6.3480   -2.3730    0.4190 hn        1 MOL      0.298340
     67 H27        -6.4020   -5.2100    1.0330 h1        1 MOL      0.148834
     68 H28        -6.5490   -3.9490    2.2560 h1        1 MOL      0.148834
     69 N8         -3.5410   -4.2740    1.1170 n         1 MOL     -0.048128
     70 C22        -2.1370   -4.5690    1.4990 c3        1 MOL     -0.053961
     71 C23        -1.2720   -3.3110    1.6700 c         1 MOL      0.349037
     72 O13        -1.4620   -2.3720    0.8680 o         1 MOL     -0.505726
     73 C24        -1.4070   -5.4380    0.4580 c3        1 MOL      0.446722
     74 C25        -1.9740   -6.8370    0.3020 c3        1 MOL     -0.396512
     75 O14        -1.3800   -4.8560   -0.8140 oh        1 MOL     -0.563943
     76 H29        -3.7470   -4.0020    0.1570 hn        1 MOL      0.179519
     77 H30        -1.9890   -5.0700    2.4540 h1        1 MOL      0.055650
     78 H31        -0.3540   -5.5050    0.7460 h1        1 MOL     -0.003480
     79 H32        -1.8260   -4.0150   -0.7770 ho        1 MOL      0.352545
     80 H33        -2.1490   -7.3190    1.2550 hc        1 MOL      0.087051
     81 H34        -2.9620   -6.8150   -0.1640 hc        1 MOL      0.087051
     82 H35        -1.2630   -7.4400   -0.2590 hc        1 MOL      0.087051
     83 N9         -0.2250   -3.4400    2.4650 n         1 MOL     -0.398002
     84 C26         0.9860   -2.6330    2.3050 c3        1 MOL     -0.098590
     85 C27         1.6670   -3.0310    1.0190 c         1 MOL      0.523974
     86 O15         2.2420   -4.1110    0.9890 o         1 MOL     -0.576929
     87 C28         1.8800   -2.6630    3.5510 c3        1 MOL      0.106194
     88 C29         1.2650   -1.9930    4.7830 c3        1 MOL      0.197362
     89 C30         3.2470   -2.0570    3.1840 c3        1 MOL     -0.240997
     90 C31         1.7840   -2.7130    6.0680 c3        1 MOL     -0.212690
     91 H36        -0.1440   -4.2530    3.0620 hn        1 MOL      0.274768
     92 H37         0.5990   -1.6110    2.2010 h1        1 MOL      0.115027
     93 H38         1.9940   -3.7130    3.8220 hc        1 MOL      0.018334
     94 H39         0.1740   -2.0460    4.8030 hc        1 MOL     -0.050362
     95 H40         1.4430   -0.9160    4.7650 hc        1 MOL     -0.050362
     96 H41         3.8610   -1.9040    4.0720 hc        1 MOL      0.048132
     97 H42         3.8030   -2.8080    2.6160 hc        1 MOL      0.048132
     98 H43         3.1500   -1.1440    2.6020 hc        1 MOL      0.048132
     99 H44         1.4000   -2.1630    6.9340 hc        1 MOL      0.039402
    100 H45         1.5800   -3.7850    6.0650 hc        1 MOL      0.039402
    101 H46         2.8730   -2.6610    6.1200 hc        1 MOL      0.039402
    102 N10         1.7280   -2.0360    0.1300 n         1 MOL     -0.210389
    103 C32         2.6650   -2.0690   -1.0240 c3        1 MOL     -0.010012
    104 C33         4.0410   -1.4790   -0.5790 c         1 MOL      0.458169
    105 O16         4.1000   -0.6480    0.3380 o         1 MOL     -0.271638
    106 C34         2.0480   -1.2020   -2.1770 c3        1 MOL     -0.145466
    107 C35         0.5520   -1.4370   -2.3330 c         1 MOL      0.595277
    108 O17         0.2320   -2.2450   -3.2680 o         1 MOL     -0.611542
    109 O18        -0.2490   -0.8110   -1.5030 o         1 MOL     -0.611542
    110 H47         1.3000   -1.1440    0.3280 hn        1 MOL      0.237194
    111 H48         2.8010   -3.0900   -1.3840 h1        1 MOL      0.091124
    112 H49         2.5250   -1.4970   -3.1110 hc        1 MOL      0.051273
    113 H50         2.1800   -0.1440   -1.9710 hc        1 MOL      0.051273
    114 N11         5.1670   -1.9210   -1.2290 n         1 MOL     -0.776981
    115 C36         6.5690   -1.4620   -0.8980 c3        1 MOL      0.609252
    116 C37         6.7230    0.0020   -0.9580 c         1 MOL      0.275096
    117 O19         7.3250    0.4840    0.0710 o         1 MOL     -0.515803
    118 C38         7.5610   -2.1720   -1.8220 c3        1 MOL     -0.314272
    119 C39         9.0290   -1.6270   -1.8480 ca        1 MOL      0.131260
    120 C40         9.7450   -1.3480   -3.0010 ca        1 MOL     -0.155105
    121 C41         9.7270   -1.6090   -0.6290 ca        1 MOL     -0.155105
    122 C42        11.0820   -0.9750   -2.9960 ca        1 MOL     -0.108745
    123 C43        11.0700   -1.1440   -0.5370 ca        1 MOL     -0.108745
    124 C44        11.7330   -0.7680   -1.7690 ca        1 MOL     -0.149203
    125 H51         5.1190   -2.5990   -1.9770 hn        1 MOL      0.345440
    126 H52         6.6760   -1.7340    0.1500 h1        1 MOL     -0.006412
    127 H53         7.2090   -2.1340   -2.8520 hc        1 MOL      0.078785
    128 H54         7.6040   -3.2330   -1.5880 hc        1 MOL      0.078785
    129 H55         9.1950   -1.4990   -3.9190 ha        1 MOL      0.102298
    130 H56         9.2150   -1.9080    0.2670 ha        1 MOL      0.102298
    131 H57        11.5650   -0.7750   -3.9400 ha        1 MOL      0.116601
    132 H58        11.5360   -1.0560    0.4340 ha        1 MOL      0.116601
    133 H59        12.7340   -0.3670   -1.6760 ha        1 MOL      0.116718
    134 N12         6.1590    0.7590   -1.8850 n         1 MOL     -0.154532
    135 C45         6.1820    2.2350   -1.7430 c3        1 MOL      0.031872
    136 C46         5.4460    2.9290   -0.6430 c         1 MOL      0.275783
    137 O20         5.8750    4.0400   -0.3240 o         1 MOL     -0.487392
    138 C47         5.5700    2.7080   -3.0690 c3        1 MOL     -0.013240
    139 C48         5.8510    1.6140   -4.0960 c3        1 MOL     -0.123881
    140 C49         5.5880    0.4150   -3.2340 c3        1 MOL      0.060986
    141 H60         7.1790    2.6670   -1.8210 h1        1 MOL      0.090385
    142 H61         4.4900    2.7960   -2.9730 hc        1 MOL      0.039385
    143 H62         6.0080    3.6560   -3.3740 hc        1 MOL      0.039385
    144 H63         5.0820    1.5800   -4.8710 hc        1 MOL      0.052993
    145 H64         6.8330    1.6470   -4.5470 hc        1 MOL      0.052993
    146 H65         4.5370    0.1470   -3.1770 h1        1 MOL      0.022824
    147 H66         6.1490   -0.4580   -3.5560 h1        1 MOL      0.022824
    148 N13         4.5470    2.1950    0.0600 n         1 MOL     -0.120871
    149 C50         3.9700    2.7000    1.3090 c3        1 MOL     -0.061318
    150 C51         4.7590    2.2140    2.5600 c         1 MOL      0.417060
    151 O21         4.9090    2.9830    3.5620 o         1 MOL     -0.557895
    152 C52         2.5640    2.1430    1.5250 c3        1 MOL      0.083161
    153 C53         1.5830    2.4470    0.3570 c3        1 MOL     -0.249132
    154 C54         0.2720    1.7290    0.4930 c         1 MOL      0.732373
    155 O22        -0.7610    2.1980   -0.0840 o         1 MOL     -0.759543
    156 O23         0.1950    0.6480    1.0950 o         1 MOL     -0.759543
    157 H67         4.3000    1.3130   -0.3560 hn        1 MOL      0.153309
    158 H68         3.7880    3.7680    1.3420 h1        1 MOL      0.106509
    159 H69         2.1630    2.6130    2.4160 hc        1 MOL      0.009023
    160 H70         2.7070    1.0720    1.6730 hc        1 MOL      0.009023
    161 H71         1.9370    2.0090   -0.5700 hc        1 MOL      0.089978
    162 H72         1.4580    3.5370    0.3490 hc        1 MOL      0.089978
    163 N14         5.4120    1.0330    2.4630 n         1 MOL     -0.061027
    164 C55         6.2190    0.4490    3.5520 c3        1 MOL     -0.259658
    165 H73         7.2670    0.4270    3.2550 h1        1 MOL      0.095961
    166 H74         6.1090    1.0570    4.4510 h1        1 MOL      0.095961
    167 H75         5.8770   -0.5660    3.7550 h1        1 MOL      0.095961
    168 H76         5.2730    0.4670    1.6330 hn        1 MOL      0.090478
    169 Ca1        -2.2360    0.0260   -0.1310 Ca        1 MOL      1.689552
    170 O24        -4.1850   -0.9320    1.5210 oh        1 MOL     -0.799481
    171 H77        -3.4930   -1.0520    2.1690 ho        1 MOL      0.390435
    172 H78        -4.9900   -1.1690    1.9810 ho        1 MOL      0.390435
    173 O25        -1.7640    0.0300    2.6250 oh        1 MOL     -0.799481
    174 H79        -1.9320   -0.0690    3.5650 ho        1 MOL      0.390435
    175 H80        -0.8410    0.2550    2.5720 ho        1 MOL      0.390435
@<TRIPOS>BOND
     1    1    2 1   
     2    1    4 1   
     3    1    5 1   
     4    1    6 1   
     5    2    3 2   
     6    2    7 1   
     7    7    8 1   
     8    7   15 1   
     9    8    9 1   
    10    8   11 1   
    11    8   16 1   
    12    9   10 2   
    13    9   19 1   
    14   11   12 1   
    15   11   17 1   
    16   11   18 1   
    17   12   13 1   
    18   12   14 1   
    19   19   20 1   
    20   19   24 1   
    21   20   21 1   
    22   20   23 1   
    23   20   25 1   
    24   21   22 2   
    25   21   29 1   
    26   23   26 1   
    27   23   27 1   
    28   23   28 1   
    29   29   30 1   
    30   29   37 1   
    31   30   31 1   
    32   30   33 1   
    33   30   38 1   
    34   31   32 2   
    35   31   41 1   
    36   33   34 1   
    37   33   39 1   
    38   33   40 1   
    39   34   35 1   
    40   34   36 1   
    41   41   42 1   
    42   41   45 1   
    43   42   43 1   
    44   42   46 1   
    45   42   47 1   
    46   43   44 2   
    47   43   48 1   
    48   48   49 1   
    49   48   56 1   
    50   49   50 1   
    51   49   52 1   
    52   49   57 1   
    53   50   51 2   
    54   50   62 1   
    55   52   53 1   
    56   52   58 1   
    57   52   59 1   
    58   53   54 1   
    59   53   55 2   
    60   54   60 1   
    61   54   61 1   
    62   62   63 1   
    63   62   66 1   
    64   63   64 1   
    65   63   67 1   
    66   63   68 1   
    67   64   65 2   
    68   64   69 1   
    69   69   70 1   
    70   69   76 1   
    71   70   71 1   
    72   70   73 1   
    73   70   77 1   
    74   71   72 2   
    75   71   83 1   
    76   73   74 1   
    77   73   75 1   
    78   73   78 1   
    79   74   80 1   
    80   74   81 1   
    81   74   82 1   
    82   75   79 1   
    83   83   84 1   
    84   83   91 1   
    85   84   85 1   
    86   84   87 1   
    87   84   92 1   
    88   85   86 2   
    89   85  102 1   
    90   87   88 1   
    91   87   89 1   
    92   87   93 1   
    93   88   90 1   
    94   88   94 1   
    95   88   95 1   
    96   89   96 1   
    97   89   97 1   
    98   89   98 1   
    99   90   99 1   
   100   90  100 1   
   101   90  101 1   
   102  102  103 1   
   103  102  110 1   
   104  103  104 1   
   105  103  106 1   
   106  103  111 1   
   107  104  105 2   
   108  104  114 1   
   109  106  107 1   
   110  106  112 1   
   111  106  113 1   
   112  107  108 1   
   113  107  109 1   
   114  114  115 1   
   115  114  125 1   
   116  115  116 1   
   117  115  118 1   
   118  115  126 1   
   119  116  117 2   
   120  116  134 1   
   121  118  119 1   
   122  118  127 1   
   123  118  128 1   
   124  119  120 ar  
   125  119  121 ar  
   126  120  122 ar  
   127  120  129 1   
   128  121  123 ar  
   129  121  130 1   
   130  122  124 ar  
   131  122  131 1   
   132  123  124 ar  
   133  123  132 1   
   134  124  133 1   
   135  134  135 1   
   136  134  140 1   
   137  135  136 1   
   138  135  138 1   
   139  135  141 1   
   140  136  137 2   
   141  136  148 1   
   142  138  139 1   
   143  138  142 1   
   144  138  143 1   
   145  139  140 1   
   146  139  144 1   
   147  139  145 1   
   148  140  146 1   
   149  140  147 1   
   150  148  149 1   
   151  148  157 1   
   152  149  150 1   
   153  149  152 1   
   154  149  158 1   
   155  150  151 2   
   156  150  163 1   
   157  152  153 1   
   158  152  159 1   
   159  152  160 1   
   160  153  154 1   
   161  153  161 1   
   162  153  162 1   
   163  154  155 1   
   164  154  156 1   
   165  163  164 1   
   166  163  168 1   
   167  164  165 1   
   168  164  166 1   
   169  164  167 1   
   170  170  171 1   
   171  170  172 1   
   172  173  174 1   
   173  173  175 1   
@<TRIPOS>SUBSTRUCTURE
     1 MOL         1 TEMP              0 ****  ****    0 ROOT
