@<TRIPOS>MOLECULE
MOL
  189   185     1     0     0
SMALL
resp


@<TRIPOS>ATOM
      1 C1         -0.0220    2.1840    6.0010 c3        1 MOL     -0.268699
      2 C2         -0.3280    1.6730    4.5380 c         1 MOL      0.734246
      3 O1          0.5710    1.6570    3.6600 o         1 MOL     -0.663944
      4 H1         -0.2790    3.2400    6.0780 hc        1 MOL      0.070039
      5 H2         -0.6140    1.6130    6.7170 hc        1 MOL      0.070039
      6 H3          1.0370    2.0510    6.2190 hc        1 MOL      0.070039
      7 N1         -1.5950    1.4480    4.2410 n         1 MOL     -0.539511
      8 C3         -2.0500    1.3320    2.8680 c3        1 MOL      0.109667
      9 C4         -2.2420    2.7760    2.3980 c         1 MOL      0.335693
     10 O2         -3.3060    3.4940    2.5900 o         1 MOL     -0.475088
     11 C5         -3.2370    0.4420    2.8500 c3        1 MOL     -0.169455
     12 C6         -3.6650    0.1880    1.4630 c         1 MOL      0.481851
     13 O3         -2.9810    0.6440    0.5360 o         1 MOL     -0.605580
     14 O4         -4.6940   -0.5610    1.3540 o         1 MOL     -0.605580
     15 H4         -2.3040    1.3210    4.9480 hn        1 MOL      0.316414
     16 H5         -1.2710    0.8230    2.3070 h1        1 MOL      0.054355
     17 H6         -4.0970    0.8590    3.3670 hc        1 MOL      0.076256
     18 H7         -2.9550   -0.5250    3.2680 hc        1 MOL      0.076256
     19 N2         -1.2790    3.3230    1.5990 n         1 MOL     -0.060044
     20 C7         -1.1120    4.7290    1.2590 c3        1 MOL     -0.293336
     21 C8         -2.3320    5.2500    0.4350 c         1 MOL      0.542770
     22 O5         -2.8290    6.3310    0.6400 o         1 MOL     -0.570131
     23 C9          0.2540    4.8210    0.5890 c3        1 MOL      0.001496
     24 C10         0.8900    6.1690    0.6680 c3        1 MOL      0.193370
     25 C11         2.2620    6.0740   -0.0080 c3        1 MOL     -0.030895
     26 C12         3.1130    7.2810    0.3180 c3        1 MOL     -0.170766
     27 N3          4.4680    7.3390   -0.2950 n4        1 MOL     -0.225509
     28 H8         -0.5110    2.7090    1.4120 hn        1 MOL      0.189293
     29 H9         -1.1470    5.2660    2.2050 h1        1 MOL      0.148816
     30 H10         0.1720    4.7200   -0.4990 hc        1 MOL      0.045695
     31 H11         0.9790    4.1240    1.0030 hc        1 MOL      0.045695
     32 H12         0.9730    6.5530    1.6870 hc        1 MOL     -0.034093
     33 H13         0.2560    6.8510    0.1140 hc        1 MOL     -0.034093
     34 H14         2.1930    6.0360   -1.1030 hc        1 MOL      0.012472
     35 H15         2.9150    5.2570    0.2850 hc        1 MOL      0.012472
     36 H16         3.2820    7.2800    1.3990 hx        1 MOL      0.157202
     37 H17         2.4710    8.1050    0.0270 hx        1 MOL      0.157202
     38 H18         4.9820    8.1790   -0.0830 hn        1 MOL      0.236597
     39 H19         5.1290    6.6250   -0.0300 hn        1 MOL      0.236597
     40 H20         4.2880    7.2750   -1.2910 hn        1 MOL      0.236597
     41 N4         -2.8020    4.4730   -0.5010 n         1 MOL     -0.227105
     42 C13        -4.0000    4.7160   -1.2760 c3        1 MOL      0.081834
     43 C14        -5.2560    4.0980   -0.6650 c         1 MOL      0.378553
     44 O6         -6.3550    4.5500   -1.0170 o         1 MOL     -0.528225
     45 C15        -3.9580    4.1950   -2.7430 c3        1 MOL     -0.483017
     46 C16        -3.2300    2.9070   -2.9320 c         1 MOL      0.865131
     47 O7         -3.3390    1.9840   -2.0840 o         1 MOL     -0.694436
     48 O8         -2.5680    2.6670   -3.9660 o         1 MOL     -0.694436
     49 H21        -2.3260    3.6040   -0.6370 hn        1 MOL      0.184312
     50 H22        -4.1080    5.8090   -1.3370 h1        1 MOL      0.101990
     51 H23        -3.3280    5.0020   -3.0920 hc        1 MOL      0.137935
     52 H24        -4.9140    4.3050   -3.2600 hc        1 MOL      0.137935
     53 N5         -5.1110    3.0190    0.1660 n         1 MOL      0.196425
     54 C17        -6.1800    2.4000    0.9600 c3        1 MOL     -0.390805
     55 C18        -6.9770    1.4150    0.1380 c         1 MOL      0.681087
     56 O9         -8.1720    1.2210    0.3590 o         1 MOL     -0.551321
     57 H25        -4.2250    2.5410    0.2560 hn        1 MOL     -0.154125
     58 H26        -6.8350    3.1960    1.3030 h1        1 MOL      0.162324
     59 H27        -5.8200    1.7660    1.7590 h1        1 MOL      0.162324
     60 N6         -6.3260    0.6070   -0.7720 n         1 MOL     -0.397871
     61 C19        -7.0060   -0.3840   -1.6280 c3        1 MOL      0.007572
     62 C20        -7.3370   -1.7040   -1.0260 c         1 MOL      0.469778
     63 O10        -7.9830   -2.6080   -1.5600 o         1 MOL     -0.535797
     64 C21        -6.2510   -0.6010   -2.9570 c3        1 MOL     -0.199847
     65 C22        -4.8020   -0.9270   -2.7010 c         1 MOL      0.711004
     66 O11        -4.4600   -1.4390   -1.5850 o         1 MOL     -0.678738
     67 O12        -3.9670   -0.8880   -3.6840 o         1 MOL     -0.678738
     68 H28        -5.3310    0.4400   -0.6610 hn        1 MOL      0.232738
     69 H29        -7.9890   -0.0100   -1.9250 h1        1 MOL      0.103042
     70 H30        -6.2750    0.2610   -3.6200 hc        1 MOL      0.084090
     71 H31        -6.7860   -1.4070   -3.4540 hc        1 MOL      0.084090
     72 N7         -6.8660   -1.9040    0.2100 n         1 MOL     -0.237424
     73 C23        -6.9480   -3.1560    0.9740 c3        1 MOL     -0.105607
     74 C24        -5.7370   -4.0480    0.7750 c         1 MOL      0.634488
     75 O13        -5.9140   -5.2180    0.9730 o         1 MOL     -0.589396
     76 H32        -6.2470   -1.1760    0.5340 hn        1 MOL      0.202016
     77 H33        -7.8000   -3.7790    0.6730 h1        1 MOL      0.087961
     78 H34        -7.0960   -3.1690    2.0550 h1        1 MOL      0.087961
     79 N8         -4.5910   -3.5120    0.4050 n         1 MOL     -0.486112
     80 C25        -3.3580   -4.2590    0.1270 c3        1 MOL     -0.025364
     81 C26        -2.1070   -3.3630    0.2710 c         1 MOL      0.412735
     82 O14        -2.1050   -2.1500    0.0650 o         1 MOL     -0.371444
     83 C27        -3.3920   -4.9830   -1.2750 c3        1 MOL      0.489654
     84 C28        -3.6580   -6.4900   -1.1240 c3        1 MOL     -0.498521
     85 O15        -4.4070   -4.4050   -2.0890 oh        1 MOL     -0.600883
     86 H35        -4.6740   -2.5920    0.0240 hn        1 MOL      0.347512
     87 H36        -3.3580   -4.9390    0.9830 h1        1 MOL      0.094425
     88 H37        -2.4580   -4.8320   -1.8190 h1        1 MOL     -0.069371
     89 H38        -4.3220   -3.4790   -1.8500 ho        1 MOL      0.394570
     90 H39        -3.0340   -6.9370   -0.3540 hc        1 MOL      0.124876
     91 H40        -4.6810   -6.6840   -0.8070 hc        1 MOL      0.124876
     92 H41        -3.4630   -6.9600   -2.0890 hc        1 MOL      0.124876
     93 N9         -1.0300   -3.9670    0.7500 n         1 MOL     -0.605461
     94 C29         0.2120   -3.3110    1.0920 c3        1 MOL      0.134754
     95 C30         1.3450   -3.8410    0.2390 c         1 MOL      0.516224
     96 O16         1.6000   -5.0140    0.3020 o         1 MOL     -0.553178
     97 C31         0.3970   -3.5050    2.6250 c3        1 MOL     -0.034970
     98 C32        -0.7230   -2.8010    3.4530 c3        1 MOL      0.162822
     99 C33         1.7540   -2.9890    3.1330 c3        1 MOL     -0.308126
    100 C34        -0.4970   -2.8350    4.9510 c3        1 MOL     -0.312807
    101 H42        -1.1200   -4.9410    0.9650 hn        1 MOL      0.320539
    102 H43         0.1400   -2.2660    0.8190 h1        1 MOL     -0.004098
    103 H44         0.3340   -4.5880    2.7440 hc        1 MOL      0.034923
    104 H45        -1.7470   -3.1500    3.2870 hc        1 MOL      0.023109
    105 H46        -0.6220   -1.7500    3.1740 hc        1 MOL      0.023109
    106 H47         1.9940   -3.2860    4.1510 hc        1 MOL      0.073091
    107 H48         2.5910   -3.4170    2.5890 hc        1 MOL      0.073091
    108 H49         1.6710   -1.9070    3.1330 hc        1 MOL      0.073091
    109 H50        -0.2740   -3.8420    5.2910 hc        1 MOL      0.070835
    110 H51         0.3500   -2.1800    5.1860 hc        1 MOL      0.070835
    111 H52        -1.2720   -2.2560    5.4590 hc        1 MOL      0.070835
    112 N10         2.0090   -2.9960   -0.5450 n         1 MOL     -0.180414
    113 C35         3.2520   -3.3380   -1.2500 c3        1 MOL     -0.062411
    114 C36         4.5410   -3.3470   -0.4030 c         1 MOL      0.433117
    115 O17         4.6050   -2.9460    0.7700 o         1 MOL     -0.401196
    116 C37         3.3750   -2.4650   -2.4630 c3        1 MOL      0.185839
    117 C38         2.1180   -2.4570   -3.3620 c3        1 MOL     -0.521619
    118 O18         3.4250   -1.0900   -2.0520 oh        1 MOL     -0.574700
    119 H53         1.8110   -2.0130   -0.5420 hn        1 MOL      0.262639
    120 H54         3.1400   -4.3680   -1.5620 h1        1 MOL      0.074583
    121 H55         4.2450   -2.7000   -3.0900 h1        1 MOL      0.066645
    122 H56         2.5740   -0.6600   -2.1270 ho        1 MOL      0.392452
    123 H57         1.1920   -2.3680   -2.7890 hc        1 MOL      0.142770
    124 H58         2.1580   -1.6040   -4.0280 hc        1 MOL      0.142770
    125 H59         2.0250   -3.3910   -3.9250 hc        1 MOL      0.142770
    126 N11         5.6880   -3.7670   -1.0140 n         1 MOL     -0.382858
    127 C39         7.0070   -3.5460   -0.3420 c3        1 MOL     -0.059101
    128 C40         7.3080   -2.1150    0.1130 c         1 MOL      0.361263
    129 O19         7.9530   -1.9150    1.1250 o         1 MOL     -0.494008
    130 C41         8.1420   -3.8580   -1.3540 c3        1 MOL      0.209956
    131 C42         8.2030   -5.3080   -1.4670 c3        1 MOL     -0.278114
    132 O20         7.8230   -3.2830   -2.6550 oh        1 MOL     -0.646029
    133 H60         5.5650   -4.3410   -1.8380 hn        1 MOL      0.298591
    134 H61         7.1200   -4.1480    0.5610 h1        1 MOL      0.137374
    135 H62         9.0840   -3.4540   -0.9820 h1        1 MOL      0.076094
    136 H63         8.5290   -3.5400   -3.2530 ho        1 MOL      0.422855
    137 H64         9.1250   -5.6600   -1.9270 hc        1 MOL      0.082247
    138 H65         8.1590   -5.8750   -0.5310 hc        1 MOL      0.082247
    139 H66         7.4000   -5.5840   -2.1470 hc        1 MOL      0.082247
    140 N12         6.6570   -1.1260   -0.5350 n         1 MOL     -0.203058
    141 C43         6.8600    0.3150   -0.2880 c3        1 MOL     -0.026193
    142 C44         5.9170    0.8330    0.8580 c         1 MOL      0.253804
    143 O21         6.2160    1.7960    1.5660 o         1 MOL     -0.520918
    144 C45         6.7720    1.0780   -1.6180 c3        1 MOL     -0.235287
    145 C46         7.3940    2.4640   -1.4760 c3        1 MOL     -0.351083
    146 C47         7.6720    3.2050   -2.8390 c3        1 MOL      0.183928
    147 C48         8.0380    4.6360   -2.5140 c3        1 MOL     -0.013894
    148 N13         8.3810    5.3930   -3.7280 n4        1 MOL     -0.076974
    149 H67         6.1510   -1.3980   -1.3630 hn        1 MOL      0.216168
    150 H68         7.9030    0.3310    0.0310 h1        1 MOL      0.129127
    151 H69         5.7150    1.1010   -1.8740 hc        1 MOL      0.103351
    152 H70         7.3610    0.5470   -2.3640 hc        1 MOL      0.103351
    153 H71         8.3870    2.4110   -1.0080 hc        1 MOL      0.167475
    154 H72         6.8050    3.0260   -0.7590 hc        1 MOL      0.167475
    155 H73         6.8060    3.2100   -3.5120 hc        1 MOL      0.005061
    156 H74         8.3700    2.5820   -3.3920 hc        1 MOL      0.005061
    157 H75         8.8390    4.6850   -1.7730 hx        1 MOL      0.005365
    158 H76         7.1590    5.0950   -2.0500 hx        1 MOL      0.005365
    159 H77         8.5350    4.8120   -4.5390 hn        1 MOL      0.203389
    160 H78         7.6310    6.0380   -3.9350 hn        1 MOL      0.203389
    161 H79         9.1650    6.0190   -3.5850 hn        1 MOL      0.203389
    162 N14         4.7180    0.3130    0.8740 n         1 MOL     -0.082651
    163 C49         3.6910    0.6510    1.8270 c3        1 MOL     -0.067853
    164 C50         3.8980   -0.1400    3.2100 c         1 MOL      0.404971
    165 O22         3.5160    0.4160    4.2590 o         1 MOL     -0.508164
    166 C51         2.3410    0.2600    1.1640 c3        1 MOL      0.260011
    167 C52         1.9740    1.1750    0.0200 c3        1 MOL     -0.124719
    168 C53         0.6670    0.6600   -0.5730 c         1 MOL      0.638768
    169 O23         0.5350   -0.5790   -0.8440 o         1 MOL     -0.723115
    170 O24        -0.2600    1.4420   -0.9120 o         1 MOL     -0.723115
    171 H80         4.5190   -0.4630    0.2640 hn        1 MOL      0.226192
    172 H81         3.7420    1.7090    2.0920 h1        1 MOL      0.103057
    173 H82         1.5610    0.2130    1.9210 hc        1 MOL     -0.006324
    174 H83         2.5040   -0.7350    0.7250 hc        1 MOL     -0.006324
    175 H84         2.6900    1.2980   -0.7990 hc        1 MOL     -0.030460
    176 H85         1.7560    2.1830    0.3560 hc        1 MOL     -0.030460
    177 N15         4.7470   -1.2480    3.1190 n         1 MOL     -0.052466
    178 C54         5.3150   -1.8850    4.2250 c3        1 MOL     -0.449398
    179 H86         5.2280   -1.2390    5.1000 h1        1 MOL      0.143539
    180 H87         4.7930   -2.8230    4.4120 h1        1 MOL      0.143539
    181 H88         6.3680   -2.0870    4.0280 h1        1 MOL      0.143539
    182 H89         4.9100   -1.6190    2.1920 hn        1 MOL      0.193359
    183 Ca1        -1.9970   -0.2610   -1.6910 Ca        1 MOL      1.693648
    184 O25        -1.5430   -2.5870   -2.9240 oh        1 MOL     -0.828617
    185 H90        -2.2260   -2.7500   -3.5740 ho        1 MOL      0.396202
    186 H91        -0.8500   -3.2110   -3.1320 ho        1 MOL      0.396202
    187 O26        -0.9110    0.3840   -4.0270 oh        1 MOL     -0.828617
    188 H92        -0.1020    0.3920   -4.5320 ho        1 MOL      0.396202
    189 H93        -1.3080    1.2380   -4.2120 ho        1 MOL      0.396202
@<TRIPOS>BOND
     1    1    2 1   
     2    1    4 1   
     3    1    5 1   
     4    1    6 1   
     5    2    3 2   
     6    2    7 1   
     7    7    8 1   
     8    7   15 1   
     9    8    9 1   
    10    8   11 1   
    11    8   16 1   
    12    9   10 2   
    13    9   19 1   
    14   11   12 1   
    15   11   17 1   
    16   11   18 1   
    17   12   13 1   
    18   12   14 1   
    19   19   20 1   
    20   19   28 1   
    21   20   21 1   
    22   20   23 1   
    23   20   29 1   
    24   21   22 2   
    25   21   41 1   
    26   23   24 1   
    27   23   30 1   
    28   23   31 1   
    29   24   25 1   
    30   24   32 1   
    31   24   33 1   
    32   25   26 1   
    33   25   34 1   
    34   25   35 1   
    35   26   27 1   
    36   26   36 1   
    37   26   37 1   
    38   27   38 1   
    39   27   39 1   
    40   27   40 1   
    41   41   42 1   
    42   41   49 1   
    43   42   43 1   
    44   42   45 1   
    45   42   50 1   
    46   43   44 2   
    47   43   53 1   
    48   45   46 1   
    49   45   51 1   
    50   45   52 1   
    51   46   47 1   
    52   46   48 1   
    53   53   54 1   
    54   53   57 1   
    55   54   55 1   
    56   54   58 1   
    57   54   59 1   
    58   55   56 2   
    59   55   60 1   
    60   60   61 1   
    61   60   68 1   
    62   61   62 1   
    63   61   64 1   
    64   61   69 1   
    65   62   63 2   
    66   62   72 1   
    67   64   65 1   
    68   64   70 1   
    69   64   71 1   
    70   65   66 1   
    71   65   67 1   
    72   72   73 1   
    73   72   76 1   
    74   73   74 1   
    75   73   77 1   
    76   73   78 1   
    77   74   75 2   
    78   74   79 1   
    79   79   80 1   
    80   79   86 1   
    81   80   81 1   
    82   80   83 1   
    83   80   87 1   
    84   81   82 2   
    85   81   93 1   
    86   83   84 1   
    87   83   85 1   
    88   83   88 1   
    89   84   90 1   
    90   84   91 1   
    91   84   92 1   
    92   85   89 1   
    93   93   94 1   
    94   93  101 1   
    95   94   95 1   
    96   94   97 1   
    97   94  102 1   
    98   95   96 2   
    99   95  112 1   
   100   97   98 1   
   101   97   99 1   
   102   97  103 1   
   103   98  100 1   
   104   98  104 1   
   105   98  105 1   
   106   99  106 1   
   107   99  107 1   
   108   99  108 1   
   109  100  109 1   
   110  100  110 1   
   111  100  111 1   
   112  112  113 1   
   113  112  119 1   
   114  113  114 1   
   115  113  116 1   
   116  113  120 1   
   117  114  115 2   
   118  114  126 1   
   119  116  117 1   
   120  116  118 1   
   121  116  121 1   
   122  117  123 1   
   123  117  124 1   
   124  117  125 1   
   125  118  122 1   
   126  126  127 1   
   127  126  133 1   
   128  127  128 1   
   129  127  130 1   
   130  127  134 1   
   131  128  129 2   
   132  128  140 1   
   133  130  131 1   
   134  130  132 1   
   135  130  135 1   
   136  131  137 1   
   137  131  138 1   
   138  131  139 1   
   139  132  136 1   
   140  140  141 1   
   141  140  149 1   
   142  141  142 1   
   143  141  144 1   
   144  141  150 1   
   145  142  143 2   
   146  142  162 1   
   147  144  145 1   
   148  144  151 1   
   149  144  152 1   
   150  145  146 1   
   151  145  153 1   
   152  145  154 1   
   153  146  147 1   
   154  146  155 1   
   155  146  156 1   
   156  147  148 1   
   157  147  157 1   
   158  147  158 1   
   159  148  159 1   
   160  148  160 1   
   161  148  161 1   
   162  162  163 1   
   163  162  171 1   
   164  163  164 1   
   165  163  166 1   
   166  163  172 1   
   167  164  165 2   
   168  164  177 1   
   169  166  167 1   
   170  166  173 1   
   171  166  174 1   
   172  167  168 1   
   173  167  175 1   
   174  167  176 1   
   175  168  169 1   
   176  168  170 1   
   177  177  178 1   
   178  177  182 1   
   179  178  179 1   
   180  178  180 1   
   181  178  181 1   
   182  184  185 1   
   183  184  186 1   
   184  187  188 1   
   185  187  189 1   
@<TRIPOS>SUBSTRUCTURE
     1 MOL         1 TEMP              0 ****  ****    0 ROOT
