@<TRIPOS>MOLECULE
MOL
  189   185     1     0     0
SMALL
resp


@<TRIPOS>ATOM
      1 C1         -0.6930    2.6240    6.0910 c3        1 MOL     -0.333785
      2 C2         -0.8250    2.2850    4.6500 c         1 MOL      0.733780
      3 O1         -0.0780    2.6060    3.7480 o         1 MOL     -0.647504
      4 H1         -0.7680    1.7140    6.6860 hc        1 MOL      0.089558
      5 H2          0.2750    3.0930    6.2670 hc        1 MOL      0.089558
      6 H3         -1.4880    3.3120    6.3780 hc        1 MOL      0.089558
      7 N1         -1.9450    1.5850    4.2800 n         1 MOL     -0.615712
      8 C3         -2.4630    1.3820    2.9170 c3        1 MOL      0.284982
      9 C4         -2.8800    2.6950    2.3440 c         1 MOL      0.385991
     10 O2         -4.0380    3.1070    2.3290 o         1 MOL     -0.483736
     11 C5         -3.5650    0.3210    2.7720 c3        1 MOL     -0.364713
     12 C6         -4.2850    0.2980    1.4480 c         1 MOL      0.811858
     13 O3         -5.3470   -0.2810    1.4000 o         1 MOL     -0.605074
     14 O4         -3.7500    0.8600    0.4090 o         1 MOL     -0.605074
     15 H4         -2.4790    1.2150    5.0490 hn        1 MOL      0.307120
     16 H5         -1.6290    0.9710    2.3410 h1        1 MOL     -0.037666
     17 H6         -4.3100    0.7420    3.4490 hc        1 MOL      0.067242
     18 H7         -3.2900   -0.6900    3.0750 hc        1 MOL      0.067242
     19 N2         -1.8860    3.3920    1.7360 n         1 MOL     -0.098064
     20 C7         -1.9310    4.7850    1.3500 c3        1 MOL     -0.368407
     21 C8         -2.8750    5.0930    0.1260 c         1 MOL      0.501570
     22 O5         -3.4050    6.2270    0.0160 o         1 MOL     -0.594367
     23 C9         -0.4640    5.2530    1.1700 c3        1 MOL      0.211709
     24 C10        -0.3070    6.7730    0.9860 c3        1 MOL     -0.203704
     25 C11         1.2960    6.9120    1.0210 c3        1 MOL     -0.019240
     26 C12         1.6660    8.3680    1.1410 c3        1 MOL      0.137203
     27 N3          3.1530    8.3940    1.4190 n4        1 MOL     -0.411993
     28 H8         -1.0130    2.9120    1.5720 hn        1 MOL      0.213896
     29 H9         -2.4690    5.2610    2.1700 h1        1 MOL      0.154540
     30 H10         0.2400    4.8250    0.4630 hc        1 MOL     -0.001272
     31 H11        -0.0220    4.9910    2.1290 hc        1 MOL     -0.001272
     32 H12        -0.7130    7.2410    1.8920 hc        1 MOL      0.089338
     33 H13        -0.6280    7.1600    0.0190 hc        1 MOL      0.089338
     34 H14         1.5650    6.5920    0.0200 hc        1 MOL      0.033466
     35 H15         1.7730    6.3090    1.7890 hc        1 MOL      0.033466
     36 H16         1.0680    8.9150    1.8710 hx        1 MOL      0.058769
     37 H17         1.5010    8.8750    0.1930 hx        1 MOL      0.058769
     38 H18         3.3400    8.1470    2.3750 hn        1 MOL      0.327179
     39 H19         3.6140    7.7530    0.7890 hn        1 MOL      0.327179
     40 H20         3.5600    9.3160    1.3490 hn        1 MOL      0.327179
     41 N4         -3.0010    4.1740   -0.7700 n         1 MOL     -0.145237
     42 C13        -3.8000    4.3210   -1.9790 c3        1 MOL     -0.129466
     43 C14        -5.1840    3.6200   -1.8890 c         1 MOL      0.527735
     44 O6         -6.0600    4.0030   -2.6900 o         1 MOL     -0.540041
     45 C15        -3.0480    3.8800   -3.2330 c3        1 MOL     -0.076906
     46 C16        -2.2750    2.6110   -3.3050 c         1 MOL      0.738622
     47 O7         -2.2950    1.8450   -2.3120 o         1 MOL     -0.715634
     48 O8         -1.6090    2.3440   -4.3570 o         1 MOL     -0.715634
     49 H21        -2.5330    3.3130   -0.5020 hn        1 MOL      0.088925
     50 H22        -4.0270    5.3720   -2.1900 h1        1 MOL      0.120777
     51 H23        -2.3900    4.6690   -3.6030 hc        1 MOL      0.027902
     52 H24        -3.7690    3.7810   -4.0450 hc        1 MOL      0.027902
     53 N5         -5.4620    2.8300   -0.8160 n         1 MOL     -0.085773
     54 C17        -6.7000    2.1590   -0.6200 c3        1 MOL     -0.343811
     55 C18        -7.0360    0.9520   -1.5100 c         1 MOL      0.652233
     56 O9         -7.9740    1.0830   -2.2960 o         1 MOL     -0.566946
     57 H25        -4.6980    2.4680   -0.2670 hn        1 MOL      0.094156
     58 H26        -7.4130    2.9500   -0.8490 h1        1 MOL      0.125132
     59 H27        -6.8060    1.9030    0.4330 h1        1 MOL      0.125132
     60 N6         -6.4050   -0.1910   -1.3630 n         1 MOL     -0.242767
     61 C19        -6.7370   -1.4660   -2.0710 c3        1 MOL     -0.104756
     62 C20        -6.8210   -2.6510   -1.1460 c         1 MOL      0.516875
     63 O10        -6.9830   -3.7870   -1.5810 o         1 MOL     -0.533655
     64 C21        -5.7130   -1.7090   -3.2100 c3        1 MOL     -0.031096
     65 C22        -4.3170   -1.5010   -2.6340 c         1 MOL      0.590310
     66 O11        -3.4520   -0.8700   -3.3200 o         1 MOL     -0.631052
     67 O12        -4.1020   -1.9330   -1.4800 o         1 MOL     -0.631052
     68 H28        -5.6330   -0.2390   -0.7200 hn        1 MOL      0.023292
     69 H29        -7.7210   -1.2780   -2.5120 h1        1 MOL      0.108676
     70 H30        -5.7890   -0.9440   -3.9760 hc        1 MOL      0.037783
     71 H31        -5.7380   -2.6300   -3.7920 hc        1 MOL      0.037783
     72 N7         -6.8090   -2.4190    0.1980 n         1 MOL     -0.372155
     73 C23        -6.7770   -3.4840    1.2860 c3        1 MOL     -0.080876
     74 C24        -5.4980   -4.2060    1.4510 c         1 MOL      0.466881
     75 O13        -5.4980   -5.2610    2.0830 o         1 MOL     -0.556520
     76 H32        -6.7250   -1.4720    0.5600 hn        1 MOL      0.264104
     77 H33        -7.5810   -4.1410    0.9700 h1        1 MOL      0.095902
     78 H34        -7.1410   -3.0670    2.2300 h1        1 MOL      0.095902
     79 N8         -4.4240   -3.7270    0.8180 n         1 MOL     -0.032749
     80 C25        -3.0950   -4.3880    0.7750 c3        1 MOL     -0.335215
     81 C26        -1.9620   -3.4170    0.7970 c         1 MOL      0.687018
     82 O14        -2.0130   -2.2050    0.5830 o         1 MOL     -0.662281
     83 C27        -2.8150   -5.3420   -0.4620 c3        1 MOL      0.577471
     84 C28        -3.7590   -6.5650   -0.4000 c3        1 MOL     -0.533331
     85 O15        -3.1240   -4.6370   -1.6360 oh        1 MOL     -0.661191
     86 H35        -4.5810   -2.8790    0.3020 hn        1 MOL      0.080446
     87 H36        -2.9380   -5.0760    1.6000 h1        1 MOL      0.108766
     88 H37        -1.7730   -5.6550   -0.5040 h1        1 MOL     -0.029686
     89 H38        -3.5840   -3.8280   -1.4120 ho        1 MOL      0.418176
     90 H39        -3.7090   -7.0140    0.5890 hc        1 MOL      0.135572
     91 H40        -4.7870   -6.3410   -0.6990 hc        1 MOL      0.135572
     92 H41        -3.2690   -7.2400   -1.0940 hc        1 MOL      0.135572
     93 N9         -0.8460   -3.9530    1.3010 n         1 MOL     -0.512956
     94 C29         0.3920   -3.2240    1.4580 c3        1 MOL      0.026207
     95 C30         1.4670   -3.7840    0.5180 c         1 MOL      0.449315
     96 O16         1.8540   -4.9520    0.5390 o         1 MOL     -0.560861
     97 C31         0.8040   -3.2370    2.9780 c3        1 MOL      0.073889
     98 C32        -0.1370   -2.1300    3.6590 c3        1 MOL     -0.123395
     99 C33         2.2910   -3.0710    3.2710 c3        1 MOL     -0.151536
    100 C34         0.1620   -2.0240    5.1450 c3        1 MOL     -0.196877
    101 H42        -0.8390   -4.8510    1.7550 hn        1 MOL      0.284162
    102 H43         0.2130   -2.2090    1.0920 h1        1 MOL      0.026796
    103 H44         0.5270   -4.2010    3.4190 hc        1 MOL      0.040266
    104 H45        -1.1500   -2.5150    3.6440 hc        1 MOL      0.108823
    105 H46         0.0170   -1.1400    3.2340 hc        1 MOL      0.108823
    106 H47         2.5460   -3.2700    4.3120 hc        1 MOL      0.039376
    107 H48         2.7470   -3.9000    2.7300 hc        1 MOL      0.039376
    108 H49         2.5490   -2.0480    3.0040 hc        1 MOL      0.039376
    109 H50         0.0940   -3.0010    5.6170 hc        1 MOL      0.043739
    110 H51         1.1000   -1.5220    5.3810 hc        1 MOL      0.043739
    111 H52        -0.5750   -1.4620    5.7200 hc        1 MOL      0.043739
    112 N10         2.0060   -2.8850   -0.2790 n         1 MOL     -0.002205
    113 C35         3.2010   -3.1180   -1.1460 c3        1 MOL     -0.044234
    114 C36         4.5690   -2.9950   -0.4600 c         1 MOL      0.255609
    115 O17         4.6420   -2.5490    0.6810 o         1 MOL     -0.307189
    116 C37         3.1530   -2.2320   -2.3970 c3        1 MOL      0.347674
    117 C38         2.0030   -2.3770   -3.4180 c3        1 MOL     -0.382512
    118 O18         3.2320   -0.8730   -1.9550 oh        1 MOL     -0.601194
    119 H53         1.4410   -2.0540   -0.4250 hn        1 MOL     -0.002279
    120 H54         3.0310   -4.1340   -1.5090 h1        1 MOL      0.062676
    121 H55         4.0660   -2.4220   -2.9530 h1        1 MOL      0.005679
    122 H56         2.4100   -0.7560   -1.4640 ho        1 MOL      0.335693
    123 H57         1.1550   -1.8090   -3.0570 hc        1 MOL      0.111081
    124 H58         2.2010   -1.9180   -4.3840 hc        1 MOL      0.111081
    125 H59         1.8730   -3.4460   -3.5110 hc        1 MOL      0.111081
    126 N11         5.6510   -3.2360   -1.1940 n         1 MOL     -0.166866
    127 C39         7.0520   -3.0460   -0.7590 c3        1 MOL     -0.031366
    128 C40         7.2450   -1.5790   -0.2980 c         1 MOL      0.385834
    129 O19         7.8490   -1.2830    0.8030 o         1 MOL     -0.490597
    130 C41         7.9570   -3.5440   -1.9270 c3        1 MOL      0.405122
    131 C42         9.2910   -3.8720   -1.4410 c3        1 MOL     -0.483061
    132 O20         7.4900   -4.7520   -2.4590 oh        1 MOL     -0.659676
    133 H60         5.5690   -3.6380   -2.1120 hn        1 MOL      0.193576
    134 H61         7.2740   -3.6470    0.1190 h1        1 MOL      0.119722
    135 H62         7.9490   -2.8130   -2.7350 h1        1 MOL     -0.026790
    136 H63         8.1790   -5.1900   -2.9750 ho        1 MOL      0.428037
    137 H64         9.2440   -4.6830   -0.7060 hc        1 MOL      0.130950
    138 H65         9.9340   -4.0750   -2.2980 hc        1 MOL      0.130950
    139 H66         9.6170   -2.9680   -0.9240 hc        1 MOL      0.130950
    140 N12         6.7170   -0.6510   -1.0920 n         1 MOL     -0.401699
    141 C43         6.7450    0.7570   -0.6970 c3        1 MOL     -0.075807
    142 C44         5.8550    1.2100    0.5590 c         1 MOL      0.465312
    143 O21         6.0660    2.3730    0.9670 o         1 MOL     -0.561098
    144 C45         6.3300    1.5280   -1.9400 c3        1 MOL     -0.167181
    145 C46         6.7790    3.0200   -1.8820 c3        1 MOL      0.007222
    146 C47         6.4690    3.8810   -3.0780 c3        1 MOL     -0.315775
    147 C48         7.3340    3.5990   -4.3660 c3        1 MOL     -0.002809
    148 N13         8.6790    4.1350   -4.1400 n4        1 MOL     -0.301001
    149 H67         6.3910   -1.0180   -1.9780 hn        1 MOL      0.272476
    150 H68         7.6990    1.0430   -0.2750 h1        1 MOL      0.133440
    151 H69         5.2550    1.5030   -2.0610 hc        1 MOL      0.106618
    152 H70         6.7670    1.0990   -2.8420 hc        1 MOL      0.106618
    153 H71         7.7930    3.1130   -1.4900 hc        1 MOL      0.041768
    154 H72         6.1460    3.4820   -1.1190 hc        1 MOL      0.041768
    155 H73         6.4950    4.9240   -2.7750 hc        1 MOL      0.143233
    156 H74         5.4310    3.6690   -3.3210 hc        1 MOL      0.143233
    157 H75         6.9630    4.0640   -5.2760 hx        1 MOL      0.100808
    158 H76         7.3100    2.5210   -4.5630 hx        1 MOL      0.100808
    159 H77         9.2640    4.0420   -4.9650 hn        1 MOL      0.293290
    160 H78         8.6380    5.0880   -3.8230 hn        1 MOL      0.293290
    161 H79         9.1460    3.4630   -3.5480 hn        1 MOL      0.293290
    162 N14         4.9370    0.3450    0.9990 n         1 MOL     -0.077932
    163 C49         3.9860    0.6190    2.0830 c3        1 MOL     -0.271565
    164 C50         4.4840   -0.1760    3.3250 c         1 MOL      0.574986
    165 O22         4.3920    0.2700    4.4280 o         1 MOL     -0.557126
    166 C51         2.5670    0.2340    1.6640 c3        1 MOL      0.040137
    167 C52         2.0060    1.1990    0.6240 c3        1 MOL      0.068507
    168 C53         0.7020    0.7060    0.0520 c         1 MOL      0.537754
    169 O23        -0.3530    1.3980    0.1490 o         1 MOL     -0.603176
    170 O24         0.7600   -0.4100   -0.5600 o         1 MOL     -0.603176
    171 H80         4.7400   -0.5020    0.4760 hn        1 MOL      0.072699
    172 H81         3.9920    1.6930    2.2580 h1        1 MOL      0.130029
    173 H82         1.8630    0.0840    2.4760 hc        1 MOL      0.063668
    174 H83         2.6510   -0.7330    1.1750 hc        1 MOL      0.063668
    175 H84         2.7240    1.1590   -0.1900 hc        1 MOL     -0.004111
    176 H85         1.9510    2.2430    0.9200 hc        1 MOL     -0.004111
    177 N15         5.2520   -1.2780    3.0930 n         1 MOL     -0.163684
    178 C54         6.1170   -1.9810    4.0630 c3        1 MOL     -0.129515
    179 H86         5.7910   -3.0170    4.1560 h1        1 MOL      0.068703
    180 H87         7.1490   -1.9560    3.7140 h1        1 MOL      0.068703
    181 H88         6.0490   -1.4900    5.0340 h1        1 MOL      0.068703
    182 H89         5.1730   -1.6970    2.1760 hn        1 MOL      0.103954
    183 Ca1        -1.9670   -0.3870   -1.1840 Ca        1 MOL      1.722740
    184 O25        -0.8750   -2.9330   -2.1710 oh        1 MOL     -0.925096
    185 H90        -0.4170   -3.0650   -3.0050 ho        1 MOL      0.421774
    186 H91        -1.3790   -3.7300   -2.0390 ho        1 MOL      0.421774
    187 O26        -0.8520   -0.1030   -3.6450 oh        1 MOL     -0.925096
    188 H92        -0.7120   -0.3940   -4.5420 ho        1 MOL      0.421774
    189 H93        -1.1280    0.8080   -3.7380 ho        1 MOL      0.421774
@<TRIPOS>BOND
     1    1    2 1   
     2    1    4 1   
     3    1    5 1   
     4    1    6 1   
     5    2    3 2   
     6    2    7 1   
     7    7    8 1   
     8    7   15 1   
     9    8    9 1   
    10    8   11 1   
    11    8   16 1   
    12    9   10 2   
    13    9   19 1   
    14   11   12 1   
    15   11   17 1   
    16   11   18 1   
    17   12   13 1   
    18   12   14 1   
    19   19   20 1   
    20   19   28 1   
    21   20   21 1   
    22   20   23 1   
    23   20   29 1   
    24   21   22 2   
    25   21   41 1   
    26   23   24 1   
    27   23   30 1   
    28   23   31 1   
    29   24   25 1   
    30   24   32 1   
    31   24   33 1   
    32   25   26 1   
    33   25   34 1   
    34   25   35 1   
    35   26   27 1   
    36   26   36 1   
    37   26   37 1   
    38   27   38 1   
    39   27   39 1   
    40   27   40 1   
    41   41   42 1   
    42   41   49 1   
    43   42   43 1   
    44   42   45 1   
    45   42   50 1   
    46   43   44 2   
    47   43   53 1   
    48   45   46 1   
    49   45   51 1   
    50   45   52 1   
    51   46   47 1   
    52   46   48 1   
    53   53   54 1   
    54   53   57 1   
    55   54   55 1   
    56   54   58 1   
    57   54   59 1   
    58   55   56 2   
    59   55   60 1   
    60   60   61 1   
    61   60   68 1   
    62   61   62 1   
    63   61   64 1   
    64   61   69 1   
    65   62   63 2   
    66   62   72 1   
    67   64   65 1   
    68   64   70 1   
    69   64   71 1   
    70   65   66 1   
    71   65   67 1   
    72   72   73 1   
    73   72   76 1   
    74   73   74 1   
    75   73   77 1   
    76   73   78 1   
    77   74   75 2   
    78   74   79 1   
    79   79   80 1   
    80   79   86 1   
    81   80   81 1   
    82   80   83 1   
    83   80   87 1   
    84   81   82 2   
    85   81   93 1   
    86   83   84 1   
    87   83   85 1   
    88   83   88 1   
    89   84   90 1   
    90   84   91 1   
    91   84   92 1   
    92   85   89 1   
    93   93   94 1   
    94   93  101 1   
    95   94   95 1   
    96   94   97 1   
    97   94  102 1   
    98   95   96 2   
    99   95  112 1   
   100   97   98 1   
   101   97   99 1   
   102   97  103 1   
   103   98  100 1   
   104   98  104 1   
   105   98  105 1   
   106   99  106 1   
   107   99  107 1   
   108   99  108 1   
   109  100  109 1   
   110  100  110 1   
   111  100  111 1   
   112  112  113 1   
   113  112  119 1   
   114  113  114 1   
   115  113  116 1   
   116  113  120 1   
   117  114  115 2   
   118  114  126 1   
   119  116  117 1   
   120  116  118 1   
   121  116  121 1   
   122  117  123 1   
   123  117  124 1   
   124  117  125 1   
   125  118  122 1   
   126  126  127 1   
   127  126  133 1   
   128  127  128 1   
   129  127  130 1   
   130  127  134 1   
   131  128  129 2   
   132  128  140 1   
   133  130  131 1   
   134  130  132 1   
   135  130  135 1   
   136  131  137 1   
   137  131  138 1   
   138  131  139 1   
   139  132  136 1   
   140  140  141 1   
   141  140  149 1   
   142  141  142 1   
   143  141  144 1   
   144  141  150 1   
   145  142  143 2   
   146  142  162 1   
   147  144  145 1   
   148  144  151 1   
   149  144  152 1   
   150  145  146 1   
   151  145  153 1   
   152  145  154 1   
   153  146  147 1   
   154  146  155 1   
   155  146  156 1   
   156  147  148 1   
   157  147  157 1   
   158  147  158 1   
   159  148  159 1   
   160  148  160 1   
   161  148  161 1   
   162  162  163 1   
   163  162  171 1   
   164  163  164 1   
   165  163  166 1   
   166  163  172 1   
   167  164  165 2   
   168  164  177 1   
   169  166  167 1   
   170  166  173 1   
   171  166  174 1   
   172  167  168 1   
   173  167  175 1   
   174  167  176 1   
   175  168  169 1   
   176  168  170 1   
   177  177  178 1   
   178  177  182 1   
   179  178  179 1   
   180  178  180 1   
   181  178  181 1   
   182  184  185 1   
   183  184  186 1   
   184  187  188 1   
   185  187  189 1   
@<TRIPOS>SUBSTRUCTURE
     1 MOL         1 TEMP              0 ****  ****    0 ROOT
