@<TRIPOS>MOLECULE
MOL
  183   181     1     0     0
SMALL
resp


@<TRIPOS>ATOM
      1 C1         -0.0970    2.8460    5.3050 c3        1 MOL     -0.347330
      2 C2         -0.7300    2.6350    3.9240 c         1 MOL      0.761833
      3 O1         -0.1490    3.1410    2.9660 o         1 MOL     -0.606068
      4 H1          0.8590    2.3250    5.3490 hc        1 MOL      0.078446
      5 H2          0.0610    3.9110    5.4740 hc        1 MOL      0.078446
      6 H3         -0.7610    2.4510    6.0740 hc        1 MOL      0.078446
      7 N1         -1.8540    1.9010    3.8150 n         1 MOL     -0.586163
      8 C3         -2.6190    1.7070    2.5610 c3        1 MOL      0.211879
      9 C4         -3.1620    3.0170    1.9880 c         1 MOL      0.449353
     10 O2         -4.1780    3.5560    2.5110 o         1 MOL     -0.562396
     11 C5         -3.7500    0.7680    2.8180 c3        1 MOL     -0.326904
     12 C6         -4.6090    0.4420    1.5830 c         1 MOL      0.745822
     13 O3         -5.8250    0.1830    1.8480 o         1 MOL     -0.673717
     14 O4         -4.2000    0.5900    0.4280 o         1 MOL     -0.673717
     15 H4         -2.1900    1.2720    4.5250 hn        1 MOL      0.302705
     16 H5         -1.9870    1.2710    1.7860 h1        1 MOL      0.031198
     17 H6         -4.3630    1.1990    3.6190 hc        1 MOL      0.067017
     18 H7         -3.4060   -0.1810    3.2300 hc        1 MOL      0.067017
     19 N2         -2.4790    3.5820    0.9870 n         1 MOL     -0.269131
     20 C7         -2.8990    4.8300    0.2900 c3        1 MOL      0.020937
     21 C8         -4.2230    4.6760   -0.4740 c         1 MOL      0.370130
     22 O5         -5.0360    5.5490   -0.4890 o         1 MOL     -0.536595
     23 C9         -1.8050    5.2910   -0.6190 c3        1 MOL      0.266879
     24 C10        -0.3910    5.2060    0.1230 c3        1 MOL      0.257355
     25 C11        -2.0610    6.7420   -1.0870 c3        1 MOL     -0.256696
     26 C12         0.8550    5.8790   -0.5560 c3        1 MOL     -0.285669
     27 H8         -1.7300    2.9870    0.6700 hn        1 MOL      0.101053
     28 H9         -3.0430    5.5820    1.0680 h1        1 MOL      0.045365
     29 H10        -1.8250    4.7070   -1.5350 hc        1 MOL     -0.002552
     30 H11        -0.1150    4.1640    0.1990 hc        1 MOL     -0.046070
     31 H12        -0.5570    5.6290    1.1180 hc        1 MOL     -0.046070
     32 H13        -2.0510    7.3760   -0.2000 hc        1 MOL      0.029589
     33 H14        -1.2450    7.0200   -1.7490 hc        1 MOL      0.029589
     34 H15        -3.0430    6.7740   -1.5610 hc        1 MOL      0.029589
     35 H16         0.7610    5.6520   -1.6210 hc        1 MOL      0.047298
     36 H17         0.8260    6.9530   -0.3750 hc        1 MOL      0.047298
     37 H18         1.6740    5.3730   -0.0450 hc        1 MOL      0.047298
     38 N3         -4.3680    3.4890   -1.1070 n         1 MOL     -0.127460
     39 C13        -5.4290    3.1640   -2.0490 c3        1 MOL     -0.002925
     40 C14        -6.7920    2.9480   -1.4530 c         1 MOL      0.355503
     41 O6         -7.8680    3.1300   -2.1150 o         1 MOL     -0.566481
     42 C15        -5.0770    2.0120   -3.0430 c3        1 MOL     -0.065332
     43 C16        -3.5500    1.7970   -3.3770 c         1 MOL      0.586228
     44 O7         -3.1370    2.1170   -4.5600 o         1 MOL     -0.666674
     45 O8         -2.7280    1.4780   -2.4630 o         1 MOL     -0.666674
     46 H19        -3.7060    2.7420   -0.9650 hn        1 MOL      0.171368
     47 H20        -5.5460    4.0810   -2.6240 h1        1 MOL      0.062850
     48 H21        -5.6520    2.1240   -3.9510 hc        1 MOL      0.022465
     49 H22        -5.2970    1.0650   -2.5540 hc        1 MOL      0.022465
     50 N4         -6.9060    2.4140   -0.2540 n         1 MOL     -0.071913
     51 C17        -8.1990    1.9080    0.3560 c3        1 MOL     -0.309811
     52 C18        -8.4420    0.5030   -0.3330 c         1 MOL      0.662448
     53 O9         -9.5900    0.2380   -0.7530 o         1 MOL     -0.625452
     54 H23        -5.9950    2.2230    0.1250 hn        1 MOL      0.148167
     55 H24        -9.0010    2.6090    0.1410 h1        1 MOL      0.128931
     56 H25        -8.1210    1.7060    1.4260 h1        1 MOL      0.128931
     57 N5         -7.4390   -0.3350   -0.3850 n         1 MOL     -0.448558
     58 C19        -7.5170   -1.6150   -1.1350 c3        1 MOL      0.182216
     59 C20        -7.3950   -2.9560   -0.2710 c         1 MOL      0.354183
     60 O10        -7.8110   -4.0470   -0.7210 o         1 MOL     -0.554480
     61 C21        -6.5550   -1.7150   -2.3480 c3        1 MOL     -0.107047
     62 C22        -5.0380   -1.7970   -2.0860 c         1 MOL      0.761904
     63 O11        -4.1790   -1.6350   -2.9940 o         1 MOL     -0.755564
     64 O12        -4.6620   -1.9750   -0.9140 o         1 MOL     -0.755564
     65 H26        -6.5500   -0.1080    0.0490 hn        1 MOL      0.264959
     66 H27        -8.4960   -1.6790   -1.5990 h1        1 MOL      0.047458
     67 H28        -6.7140   -0.8010   -2.9210 hc        1 MOL      0.014437
     68 H29        -6.7930   -2.5940   -2.9420 hc        1 MOL      0.014437
     69 N6         -6.9270   -2.8580    0.9650 n         1 MOL     -0.269331
     70 C23        -6.7400   -3.9820    1.9160 c3        1 MOL      0.018344
     71 C24        -5.3130   -4.5380    2.0470 c         1 MOL      0.495840
     72 O13        -5.1380   -5.4260    2.8430 o         1 MOL     -0.596533
     73 H30        -6.4720   -1.9750    1.1720 hn        1 MOL      0.165653
     74 H31        -7.2140   -4.9080    1.6050 h1        1 MOL      0.052184
     75 H32        -7.1780   -3.7440    2.8870 h1        1 MOL      0.052184
     76 N7         -4.3540   -3.8940    1.4360 n         1 MOL     -0.151201
     77 C25        -2.9230   -4.2440    1.6350 c3        1 MOL     -0.166478
     78 C26        -1.9000   -3.1490    1.4910 c         1 MOL      0.784069
     79 O14        -2.2010   -2.0250    1.0980 o         1 MOL     -0.679809
     80 C27        -2.5420   -5.4670    0.7290 c3        1 MOL      0.123646
     81 C28        -2.8910   -5.3480   -0.7380 c3        1 MOL     -0.244974
     82 C29        -1.8840   -4.5260   -1.4660 c         1 MOL      0.543224
     83 N8         -0.7670   -5.1060   -1.9220 n         1 MOL     -0.694222
     84 O15        -1.8270   -3.3020   -1.4790 o         1 MOL     -0.464373
     85 H33        -4.5230   -3.0300    0.9430 hn        1 MOL      0.201211
     86 H34        -2.8870   -4.5920    2.6600 h1        1 MOL      0.078249
     87 H35        -3.0750   -6.2820    1.2090 hc        1 MOL     -0.014184
     88 H36        -1.5060   -5.7560    0.8660 hc        1 MOL     -0.014184
     89 H37        -3.8290   -4.8240   -0.9010 hc        1 MOL      0.087203
     90 H38        -3.0110   -6.3740   -1.0800 hc        1 MOL      0.087203
     91 H39        -0.8450   -6.0800   -2.1760 hn        1 MOL      0.313746
     92 H40        -0.1390   -4.4330   -2.3410 hn        1 MOL      0.313746
     93 N9         -0.6770   -3.4850    1.8860 n         1 MOL     -0.671263
     94 C30         0.3870   -2.4610    2.0870 c3        1 MOL      0.112907
     95 C31         1.6050   -2.9390    1.3420 c         1 MOL      0.470780
     96 O16         2.1470   -3.9430    1.7460 o         1 MOL     -0.580206
     97 C32         0.7890   -2.1590    3.5890 c3        1 MOL      0.242191
     98 C33         2.1220   -1.4320    3.8390 c3        1 MOL     -0.233778
     99 C34        -0.3150   -1.2670    4.2200 c3        1 MOL     -0.233778
    100 H41        -0.4170   -4.4590    1.9570 hn        1 MOL      0.346043
    101 H42         0.0810   -1.5530    1.5670 h1        1 MOL      0.137138
    102 H43         0.7610   -3.1410    4.0450 hc        1 MOL     -0.037739
    103 H44         2.9190   -2.1420    3.6040 hc        1 MOL      0.036387
    104 H45         2.1650   -0.5460    3.1980 hc        1 MOL      0.036387
    105 H46         2.1750   -1.1400    4.8870 hc        1 MOL      0.036387
    106 H47        -0.3940   -0.2970    3.7560 hc        1 MOL      0.036387
    107 H48        -1.2570   -1.8000    4.0870 hc        1 MOL      0.036387
    108 H49        -0.1320   -1.2550    5.3020 hc        1 MOL      0.036387
    109 N10         1.9080   -2.3220    0.2040 n         1 MOL     -0.201887
    110 C35         3.2200   -2.4570   -0.4960 c3        1 MOL      0.033669
    111 C36         4.3870   -1.7850    0.2460 c         1 MOL      0.453939
    112 O17         4.2340   -1.0260    1.2540 o         1 MOL     -0.368481
    113 C37         3.0340   -1.9620   -1.9420 c3        1 MOL     -0.323093
    114 C38         2.4020   -2.9040   -2.9790 c         1 MOL      0.754886
    115 N11         3.0870   -3.8960   -3.3490 n         1 MOL     -0.773680
    116 O18         1.2520   -2.7680   -3.3630 o         1 MOL     -0.575087
    117 H50         1.2500   -1.6470   -0.1400 hn        1 MOL      0.128360
    118 H51         3.4510   -3.5200   -0.5120 h1        1 MOL      0.022935
    119 H52         4.0020   -1.6360   -2.3230 hc        1 MOL      0.091050
    120 H53         2.4110   -1.0660   -2.0180 hc        1 MOL      0.091050
    121 H54         3.9850   -3.9860   -2.8980 hn        1 MOL      0.364678
    122 H55         2.6170   -4.6560   -3.8110 hn        1 MOL      0.364678
    123 N12         5.6210   -2.0470   -0.3150 n         1 MOL     -0.490028
    124 C39         6.9010   -1.5900    0.3050 c3        1 MOL      0.130884
    125 C40         7.0410   -0.0990    0.1910 c         1 MOL      0.629883
    126 O19         7.5220    0.5710    1.0910 o         1 MOL     -0.545247
    127 C41         8.0420   -2.3260   -0.3520 c3        1 MOL     -0.125742
    128 C42         9.4170   -1.6850   -0.1870 ca        1 MOL      0.017307
    129 C43         9.9330   -1.6780    1.1690 ca        1 MOL     -0.212661
    130 C44        10.1620   -1.1310   -1.2590 ca        1 MOL     -0.212661
    131 C45        11.1680   -0.9680    1.3820 ca        1 MOL     -0.213121
    132 C46        11.3460   -0.4160   -1.0410 ca        1 MOL     -0.213121
    133 C47        11.8330   -0.3810    0.2850 ca        1 MOL      0.319509
    134 O20        13.0910    0.0210    0.5930 oh        1 MOL     -0.508502
    135 H56         5.6350   -2.7530   -1.0420 hn        1 MOL      0.272073
    136 H57         6.8960   -1.7580    1.3850 h1        1 MOL      0.032381
    137 H58         7.8340   -2.3570   -1.4270 hc        1 MOL      0.061151
    138 H59         8.1010   -3.3640   -0.0310 hc        1 MOL      0.061151
    139 H60         9.3190   -2.1160    1.9380 ha        1 MOL      0.160878
    140 H61         9.7890   -1.1790   -2.2730 ha        1 MOL      0.160878
    141 H62        11.6090   -0.8570    2.3570 ha        1 MOL      0.140254
    142 H63        11.9380    0.0030   -1.8400 ha        1 MOL      0.140254
    143 H64        13.5690    0.2080   -0.2270 ho        1 MOL      0.352495
    144 N13         6.6060    0.4540   -0.9790 n         1 MOL     -0.088491
    145 C48         6.6180    1.8970   -1.0470 c3        1 MOL     -0.157792
    146 C49         5.5240    2.6210   -0.2300 c         1 MOL      0.469006
    147 O21         5.6430    3.7480    0.2400 o         1 MOL     -0.512163
    148 C50         6.5920    2.3550   -2.4800 c3        1 MOL     -0.164773
    149 C51         5.4950    1.7610   -3.3180 c3        1 MOL     -0.004087
    150 C52         6.0210    0.7030   -4.2270 c         1 MOL      0.672437
    151 O22         6.3550   -0.4890   -3.8460 o         1 MOL     -0.701343
    152 O23         6.0900    0.9450   -5.4670 o         1 MOL     -0.701343
    153 H65         6.3550   -0.1050   -1.7820 hn        1 MOL      0.022811
    154 H66         7.4910    2.2940   -0.5390 h1        1 MOL      0.069911
    155 H67         7.5590    2.0660   -2.8750 hc        1 MOL      0.074146
    156 H68         6.5230    3.4320   -2.6390 hc        1 MOL      0.074146
    157 H69         5.0390    2.4780   -4.0000 hc        1 MOL     -0.008259
    158 H70         4.7270    1.3330   -2.6570 hc        1 MOL     -0.008259
    159 N14         4.3850    1.9740   -0.0130 n         1 MOL     -0.292279
    160 C53         3.4570    2.4210    0.9560 c3        1 MOL     -0.149105
    161 C54         4.1390    2.4680    2.3050 c         1 MOL      0.394684
    162 O24         4.1480    3.4790    2.9900 o         1 MOL     -0.531370
    163 C55         2.2280    1.5600    0.9310 c3        1 MOL      0.150891
    164 C56         1.6010    1.5580   -0.4310 c3        1 MOL     -0.018504
    165 C57         0.2320    0.9220   -0.3310 c         1 MOL      0.750231
    166 O25        -0.8100    1.6310   -0.2420 o         1 MOL     -0.721429
    167 O26         0.1530   -0.2780   -0.3920 o         1 MOL     -0.721429
    168 H71         4.4000    0.9790   -0.1910 hn        1 MOL      0.338956
    169 H72         3.1660    3.4550    0.7870 h1        1 MOL      0.153918
    170 H73         1.5300    2.0760    1.5910 hc        1 MOL     -0.001389
    171 H74         2.4070    0.5250    1.2220 hc        1 MOL     -0.001389
    172 H75         2.1990    0.8590   -1.0140 hc        1 MOL     -0.023750
    173 H76         1.5670    2.4810   -0.9970 hc        1 MOL     -0.023750
    174 N15         4.8950    1.4090    2.6860 n         1 MOL      0.022218
    175 C58         5.5990    1.3210    3.9730 c3        1 MOL     -0.240068
    176 H77         6.5110    0.7360    3.8480 h1        1 MOL      0.081473
    177 H78         5.8540    2.3220    4.3180 h1        1 MOL      0.081473
    178 H79         4.9550    0.8360    4.7070 h1        1 MOL      0.081473
    179 H80         5.0210    0.6820    1.9980 hn        1 MOL     -0.012460
    180 Ca1        -2.4390   -0.6910   -1.0230 Ca        1 MOL      1.707781
    181 O27        -1.0270   -0.8090   -3.2520 oh        1 MOL     -0.796810
    182 H81        -0.2590   -1.3640   -3.4010 ho        1 MOL      0.385675
    183 H82        -0.9760   -0.1430   -3.9360 ho        1 MOL      0.385675
@<TRIPOS>BOND
     1    1    2 1   
     2    1    4 1   
     3    1    5 1   
     4    1    6 1   
     5    2    3 2   
     6    2    7 1   
     7    7    8 1   
     8    7   15 1   
     9    8    9 1   
    10    8   11 1   
    11    8   16 1   
    12    9   10 2   
    13    9   19 1   
    14   11   12 1   
    15   11   17 1   
    16   11   18 1   
    17   12   13 1   
    18   12   14 1   
    19   19   20 1   
    20   19   27 1   
    21   20   21 1   
    22   20   23 1   
    23   20   28 1   
    24   21   22 2   
    25   21   38 1   
    26   23   24 1   
    27   23   25 1   
    28   23   29 1   
    29   24   26 1   
    30   24   30 1   
    31   24   31 1   
    32   25   32 1   
    33   25   33 1   
    34   25   34 1   
    35   26   35 1   
    36   26   36 1   
    37   26   37 1   
    38   38   39 1   
    39   38   46 1   
    40   39   40 1   
    41   39   42 1   
    42   39   47 1   
    43   40   41 2   
    44   40   50 1   
    45   42   43 1   
    46   42   48 1   
    47   42   49 1   
    48   43   44 1   
    49   43   45 1   
    50   50   51 1   
    51   50   54 1   
    52   51   52 1   
    53   51   55 1   
    54   51   56 1   
    55   52   53 2   
    56   52   57 1   
    57   57   58 1   
    58   57   65 1   
    59   58   59 1   
    60   58   61 1   
    61   58   66 1   
    62   59   60 2   
    63   59   69 1   
    64   61   62 1   
    65   61   67 1   
    66   61   68 1   
    67   62   63 1   
    68   62   64 1   
    69   69   70 1   
    70   69   73 1   
    71   70   71 1   
    72   70   74 1   
    73   70   75 1   
    74   71   72 2   
    75   71   76 1   
    76   76   77 1   
    77   76   85 1   
    78   77   78 1   
    79   77   80 1   
    80   77   86 1   
    81   78   79 2   
    82   78   93 1   
    83   80   81 1   
    84   80   87 1   
    85   80   88 1   
    86   81   82 1   
    87   81   89 1   
    88   81   90 1   
    89   82   83 1   
    90   82   84 2   
    91   83   91 1   
    92   83   92 1   
    93   93   94 1   
    94   93  100 1   
    95   94   95 1   
    96   94   97 1   
    97   94  101 1   
    98   95   96 2   
    99   95  109 1   
   100   97   98 1   
   101   97   99 1   
   102   97  102 1   
   103   98  103 1   
   104   98  104 1   
   105   98  105 1   
   106   99  106 1   
   107   99  107 1   
   108   99  108 1   
   109  109  110 1   
   110  109  117 1   
   111  110  111 1   
   112  110  113 1   
   113  110  118 1   
   114  111  112 2   
   115  111  123 1   
   116  113  114 1   
   117  113  119 1   
   118  113  120 1   
   119  114  115 1   
   120  114  116 2   
   121  115  121 1   
   122  115  122 1   
   123  123  124 1   
   124  123  135 1   
   125  124  125 1   
   126  124  127 1   
   127  124  136 1   
   128  125  126 2   
   129  125  144 1   
   130  127  128 1   
   131  127  137 1   
   132  127  138 1   
   133  128  129 ar  
   134  128  130 ar  
   135  129  131 ar  
   136  129  139 1   
   137  130  132 ar  
   138  130  140 1   
   139  131  133 ar  
   140  131  141 1   
   141  132  133 ar  
   142  132  142 1   
   143  133  134 1   
   144  134  143 1   
   145  144  145 1   
   146  144  153 1   
   147  145  146 1   
   148  145  148 1   
   149  145  154 1   
   150  146  147 2   
   151  146  159 1   
   152  148  149 1   
   153  148  155 1   
   154  148  156 1   
   155  149  150 1   
   156  149  157 1   
   157  149  158 1   
   158  150  151 1   
   159  150  152 1   
   160  159  160 1   
   161  159  168 1   
   162  160  161 1   
   163  160  163 1   
   164  160  169 1   
   165  161  162 2   
   166  161  174 1   
   167  163  164 1   
   168  163  170 1   
   169  163  171 1   
   170  164  165 1   
   171  164  172 1   
   172  164  173 1   
   173  165  166 1   
   174  165  167 1   
   175  174  175 1   
   176  174  179 1   
   177  175  176 1   
   178  175  177 1   
   179  175  178 1   
   180  181  182 1   
   181  181  183 1   
@<TRIPOS>SUBSTRUCTURE
     1 MOL         1 TEMP              0 ****  ****    0 ROOT
