@<TRIPOS>MOLECULE
MOL
  181   177     1     0     0
SMALL
resp


@<TRIPOS>ATOM
      1 C1         -0.8340    2.5890    5.9970 c3        1 MOL     -0.275290
      2 C2         -0.8600    2.2690    4.4920 c         1 MOL      0.831881
      3 O1          0.1280    2.4170    3.8000 o         1 MOL     -0.617932
      4 H1         -0.7580    3.6680    6.1370 hc        1 MOL      0.065274
      5 H2         -1.7510    2.2270    6.4620 hc        1 MOL      0.065274
      6 H3          0.0260    2.1030    6.4580 hc        1 MOL      0.065274
      7 N1         -2.0030    1.7610    3.9230 n         1 MOL     -0.752275
      8 C3         -2.1570    1.6780    2.5080 c3        1 MOL     -0.022469
      9 C4         -2.4870    3.0640    1.8600 c         1 MOL      0.778015
     10 O2         -3.5090    3.6480    2.2490 o         1 MOL     -0.568344
     11 C5         -3.3130    0.6790    2.0790 c3        1 MOL      0.206104
     12 C6         -3.5190    0.4450    0.5970 c         1 MOL      0.233091
     13 O3         -4.3670   -0.3770    0.3010 o         1 MOL     -0.497371
     14 O4         -2.9380    1.1410   -0.2820 o         1 MOL     -0.497371
     15 H4         -2.7390    1.5160    4.5730 hn        1 MOL      0.355107
     16 H5         -1.2290    1.3580    2.0410 h1        1 MOL      0.016224
     17 H6         -4.2210    1.0780    2.5400 hc        1 MOL     -0.006611
     18 H7         -3.2460   -0.2750    2.6020 hc        1 MOL     -0.006611
     19 N2         -1.6330    3.6670    0.9580 n         1 MOL     -0.615231
     20 C7         -1.9350    4.9810    0.4650 c3        1 MOL      0.186613
     21 C8         -2.9880    5.0120   -0.7350 c         1 MOL      0.370071
     22 O5         -3.3460    6.0970   -1.1880 o         1 MOL     -0.558403
     23 C9         -0.6670    5.7060    0.1600 c3        1 MOL     -0.095535
     24 H8         -0.9760    3.1460    0.3840 hn        1 MOL      0.363671
     25 H9         -2.3200    5.6520    1.2220 h1        1 MOL      0.043597
     26 H10        -0.1470    5.0820   -0.5600 hc        1 MOL      0.027688
     27 H11        -0.8210    6.7130   -0.2150 hc        1 MOL      0.027688
     28 H12         0.1120    5.8910    0.8990 hc        1 MOL      0.027688
     29 N3         -3.6200    3.8650   -1.0950 n         1 MOL      0.095584
     30 C10        -4.9010    3.7150   -1.8310 c3        1 MOL     -0.021929
     31 C11        -6.1570    3.5090   -0.9330 c         1 MOL      0.288994
     32 O6         -7.3170    3.6020   -1.2880 o         1 MOL     -0.501059
     33 C12        -4.8070    2.6260   -2.9430 c3        1 MOL     -0.113524
     34 C13        -3.5580    2.7740   -3.7660 c         1 MOL      0.621514
     35 O7         -3.5750    3.5380   -4.7460 o         1 MOL     -0.689243
     36 O8         -2.5140    2.1970   -3.4150 o         1 MOL     -0.689243
     37 H13        -3.2470    3.0320   -0.6640 hn        1 MOL     -0.068686
     38 H14        -5.0580    4.6690   -2.3280 h1        1 MOL      0.092309
     39 H15        -5.6730    2.6940   -3.6010 hc        1 MOL      0.017302
     40 H16        -4.8940    1.6240   -2.5340 hc        1 MOL      0.017302
     41 N4         -5.8190    3.1290    0.3240 n         1 MOL      0.149712
     42 C14        -6.8880    2.8460    1.3030 c3        1 MOL     -0.246253
     43 C15        -7.6050    1.4750    1.0840 c         1 MOL      0.475056
     44 O9         -8.6790    1.1790    1.6130 o         1 MOL     -0.570089
     45 H17        -4.8500    3.1980    0.6130 hn        1 MOL     -0.119369
     46 H18        -7.5550    3.7120    1.2430 h1        1 MOL      0.106913
     47 H19        -6.4270    2.7820    2.2890 h1        1 MOL      0.106913
     48 N5         -7.0110    0.6270    0.2560 n         1 MOL     -0.210714
     49 C16        -7.6340   -0.6390   -0.1050 c3        1 MOL     -0.019952
     50 C17        -7.2550   -1.8130    0.8300 c         1 MOL      0.418354
     51 O10        -7.8350   -2.9090    0.7100 o         1 MOL     -0.477356
     52 C18        -7.2070   -0.8030   -1.6550 c3        1 MOL     -0.223648
     53 C19        -7.4280   -2.1580   -2.1650 c         1 MOL      0.622189
     54 N6         -6.4230   -2.6780   -2.7350 n         1 MOL     -0.670845
     55 O11        -8.4860   -2.7740   -2.1330 o         1 MOL     -0.595707
     56 H20        -6.0730    0.8620   -0.0490 hn        1 MOL      0.254598
     57 H21        -8.7270   -0.5920   -0.1210 h1        1 MOL      0.130747
     58 H22        -6.1290   -0.6700   -1.7540 hc        1 MOL      0.089812
     59 H23        -7.7680   -0.0640   -2.2370 hc        1 MOL      0.089812
     60 H24        -5.6510   -2.1150   -3.0700 hn        1 MOL      0.310906
     61 H25        -6.5990   -3.5890   -3.1430 hn        1 MOL      0.310906
     62 N7         -6.2950   -1.6280    1.7720 n         1 MOL     -0.263580
     63 C20        -5.7610   -2.6330    2.7340 c3        1 MOL     -0.002534
     64 C21        -4.7130   -3.5950    2.1390 c         1 MOL      0.467880
     65 O12        -4.6410   -4.7790    2.5700 o         1 MOL     -0.590625
     66 H26        -5.6510   -0.8650    1.6190 hn        1 MOL      0.109408
     67 H27        -6.5490   -3.1980    3.2250 h1        1 MOL      0.056073
     68 H28        -5.2480   -2.0130    3.4740 h1        1 MOL      0.056073
     69 N8         -3.9230   -3.2670    1.1500 n         1 MOL     -0.145512
     70 C22        -2.6760   -4.0580    0.8120 c3        1 MOL     -0.030075
     71 C23        -1.4680   -3.0550    0.6270 c         1 MOL      0.199229
     72 O13        -1.6870   -1.9050    0.1490 o         1 MOL     -0.398256
     73 C24        -2.9010   -4.8730   -0.3960 c3        1 MOL      0.141993
     74 C25        -3.9190   -5.9420   -0.2590 c3        1 MOL     -0.409844
     75 O14        -3.1340   -4.0910   -1.5550 oh        1 MOL     -0.568364
     76 H29        -3.9980   -2.3240    0.8010 hn        1 MOL      0.198338
     77 H30        -2.5220   -4.7940    1.6040 h1        1 MOL      0.111331
     78 H31        -1.9660   -5.4160   -0.5510 h1        1 MOL      0.050770
     79 H32        -3.1220   -4.6240   -2.3530 ho        1 MOL      0.413428
     80 H33        -3.7560   -6.7100    0.5020 hc        1 MOL      0.125253
     81 H34        -4.9200   -5.5490   -0.0730 hc        1 MOL      0.125253
     82 H35        -4.0030   -6.4770   -1.2060 hc        1 MOL      0.125253
     83 N9         -0.2540   -3.5020    0.9560 n         1 MOL     -0.066224
     84 C26         0.8840   -2.6790    1.0080 c3        1 MOL     -0.268995
     85 C27         2.0650   -3.1010    0.1510 c         1 MOL      0.395875
     86 O15         2.3640   -4.2450    0.1430 o         1 MOL     -0.549239
     87 C28         1.2870   -2.3700    2.4880 c3        1 MOL      0.019790
     88 C29         1.7670   -3.6020    3.3280 c3        1 MOL     -0.125982
     89 C30         0.1730   -1.6150    3.2610 c3        1 MOL     -0.271812
     90 C31         2.2060   -3.2540    4.7760 c3        1 MOL     -0.202513
     91 H36        -0.1340   -4.4340    1.3230 hn        1 MOL      0.222075
     92 H37         0.6370   -1.6930    0.6190 h1        1 MOL      0.119455
     93 H38         2.2040   -1.7780    2.5140 hc        1 MOL      0.062054
     94 H39         2.6620   -4.0020    2.8610 hc        1 MOL      0.059508
     95 H40         1.0430   -4.4140    3.3770 hc        1 MOL      0.059508
     96 H41        -0.0210   -0.7860    2.5920 hc        1 MOL      0.093717
     97 H42        -0.7690   -2.1460    3.4000 hc        1 MOL      0.093717
     98 H43         0.5740   -1.3160    4.2330 hc        1 MOL      0.093717
     99 H44         2.6630   -4.1540    5.2020 hc        1 MOL      0.054069
    100 H45         2.8630   -2.3940    4.7480 hc        1 MOL      0.054069
    101 H46         1.2540   -3.0390    5.2800 hc        1 MOL      0.054069
    102 N10         2.6070   -2.1710   -0.6290 n         1 MOL     -0.028551
    103 C32         3.8000   -2.3690   -1.4770 c3        1 MOL      0.014670
    104 C33         5.0340   -1.8000   -0.7220 c         1 MOL      0.369721
    105 O16         4.8580   -1.1690    0.3350 o         1 MOL     -0.337466
    106 C34         3.5150   -1.7060   -2.8630 c3        1 MOL     -0.102158
    107 C35         2.3170   -2.2790   -3.5070 c         1 MOL      0.752090
    108 O17         2.1220   -3.4680   -3.3640 o         1 MOL     -0.714103
    109 O18         1.7230   -1.5210   -4.2260 o         1 MOL     -0.714103
    110 H47         2.2260   -1.2350   -0.5430 hn        1 MOL      0.277027
    111 H48         3.9050   -3.4400   -1.6030 h1        1 MOL      0.054412
    112 H49         4.3490   -1.8850   -3.5400 hc        1 MOL     -0.004258
    113 H50         3.3700   -0.6490   -2.6470 hc        1 MOL     -0.004258
    114 N11         6.2190   -1.8620   -1.3520 n         1 MOL     -0.540641
    115 C36         7.4120   -1.3870   -0.7830 c3        1 MOL      0.353345
    116 C37         7.4210    0.0310   -0.1410 c         1 MOL      0.448808
    117 O19         7.7600    0.1130    1.0730 o         1 MOL     -0.495235
    118 C38         8.4670   -1.4180   -1.9390 c3        1 MOL     -0.180476
    119 C39         9.8280   -0.6810   -1.5420 ca        1 MOL     -0.026070
    120 C40        10.5170   -1.0270   -0.3610 ca        1 MOL     -0.071038
    121 C41        10.3020    0.3930   -2.3000 ca        1 MOL     -0.071038
    122 C42        11.6280   -0.3460    0.0640 ca        1 MOL     -0.192084
    123 C43        11.4810    1.0300   -1.9320 ca        1 MOL     -0.192084
    124 C44        12.1190    0.6900   -0.7430 ca        1 MOL     -0.019542
    125 H51         6.0960   -2.1500   -2.3220 hn        1 MOL      0.281593
    126 H52         7.7330   -2.1220   -0.0500 h1        1 MOL      0.029947
    127 H53         8.0560   -1.0860   -2.8890 hc        1 MOL      0.069836
    128 H54         8.7550   -2.4480   -2.1310 hc        1 MOL      0.069836
    129 H55        10.0490   -1.7860    0.2460 ha        1 MOL      0.086375
    130 H56         9.7340    0.7130   -3.1590 ha        1 MOL      0.086375
    131 H57        12.0240   -0.5020    1.0510 ha        1 MOL      0.131639
    132 H58        11.8040    1.8940   -2.4940 ha        1 MOL      0.131639
    133 H59        12.9850    1.2930   -0.5020 ha        1 MOL      0.074627
    134 N12         6.9740    1.1670   -0.7820 n         1 MOL     -0.216225
    135 C45         6.8070    2.4240   -0.0530 c3        1 MOL     -0.007399
    136 C46         5.9680    2.3740    1.2230 c         1 MOL      0.319042
    137 O20         6.2420    3.0440    2.1910 o         1 MOL     -0.523830
    138 C47         6.2430    3.4460   -1.0350 c3        1 MOL      0.063399
    139 C48         5.7480    2.6410   -2.2490 c3        1 MOL     -0.041009
    140 C49         6.5510    1.4210   -2.1750 c3        1 MOL     -0.108955
    141 H60         7.8070    2.7390    0.2470 h1        1 MOL      0.066503
    142 H61         5.4220    4.0500   -0.6610 hc        1 MOL      0.015279
    143 H62         7.0600    4.1130   -1.3150 hc        1 MOL      0.015279
    144 H63         4.6830    2.4150   -2.1810 hc        1 MOL      0.026829
    145 H64         5.9580    3.2970   -3.0940 hc        1 MOL      0.026829
    146 H65         6.0630    0.5850   -2.6780 h1        1 MOL      0.071245
    147 H66         7.3970    1.4940   -2.8520 h1        1 MOL      0.071245
    148 N13         4.8950    1.6530    1.2020 n         1 MOL     -0.028063
    149 C50         3.8850    1.6260    2.2490 c3        1 MOL     -0.250799
    150 C51         4.2540    0.6440    3.4150 c         1 MOL      0.482929
    151 O21         3.8650    0.8570    4.5830 o         1 MOL     -0.558583
    152 C52         2.5860    1.1220    1.5920 c3        1 MOL      0.168962
    153 C53         2.0390    2.0910    0.4620 c3        1 MOL     -0.363000
    154 C54         0.9590    1.3370   -0.3300 c         1 MOL      0.656090
    155 O22        -0.1480    1.8960   -0.5880 o         1 MOL     -0.705683
    156 O23         1.1350    0.1800   -0.7870 o         1 MOL     -0.705683
    157 H67         4.7460    1.0820    0.3870 hn        1 MOL      0.181521
    158 H68         3.7500    2.6220    2.6760 h1        1 MOL      0.142162
    159 H69         1.8290    0.9690    2.3620 hc        1 MOL      0.034679
    160 H70         2.8330    0.1040    1.2830 hc        1 MOL      0.034679
    161 H71         2.7750    2.3730   -0.2820 hc        1 MOL      0.113548
    162 H72         1.8260    3.1020    0.8000 hc        1 MOL      0.113548
    163 N14         5.0520   -0.3830    3.0590 n         1 MOL      0.036883
    164 C55         5.7960   -1.3410    3.9080 c3        1 MOL     -0.415161
    165 H73         5.5230   -2.3590    3.6320 h1        1 MOL      0.135072
    166 H74         6.8670   -1.1990    3.7630 h1        1 MOL      0.135072
    167 H75         5.5450   -1.1700    4.9550 h1        1 MOL      0.135072
    168 H76         5.1480   -0.5290    2.0640 hn        1 MOL     -0.018065
    169 Ca1        -1.3520    0.0500   -1.9790 Ca        1 MOL      1.718213
    170 O24         0.2860    0.7610   -3.9600 oh        1 MOL     -0.825488
    171 H77         0.8970    0.0320   -4.0200 ho        1 MOL      0.392752
    172 H78         0.7720    1.5160   -4.3130 ho        1 MOL      0.392752
    173 O25        -3.7090   -1.1770   -2.0220 oh        1 MOL     -0.825488
    174 H79        -3.5730   -2.1260   -2.0130 ho        1 MOL      0.392752
    175 H80        -4.1800   -0.9980   -1.2180 ho        1 MOL      0.392752
    176 O26        -0.5120   -2.4930   -2.4060 oh        1 MOL     -0.825488
    177 H81        -1.0080   -3.3110   -2.3970 ho        1 MOL      0.392752
    178 H82         0.1930   -2.6530   -3.0240 ho        1 MOL      0.392752
    179 O27        -1.8080   -1.0500   -4.2450 oh        1 MOL     -0.825488
    180 H83        -1.3310   -0.3950   -4.7530 ho        1 MOL      0.392752
    181 H84        -1.6990   -1.8610   -4.7490 ho        1 MOL      0.392752
@<TRIPOS>BOND
     1    1    2 1   
     2    1    4 1   
     3    1    5 1   
     4    1    6 1   
     5    2    3 2   
     6    2    7 1   
     7    7    8 1   
     8    7   15 1   
     9    8    9 1   
    10    8   11 1   
    11    8   16 1   
    12    9   10 2   
    13    9   19 1   
    14   11   12 1   
    15   11   17 1   
    16   11   18 1   
    17   12   13 1   
    18   12   14 1   
    19   19   20 1   
    20   19   24 1   
    21   20   21 1   
    22   20   23 1   
    23   20   25 1   
    24   21   22 2   
    25   21   29 1   
    26   23   26 1   
    27   23   27 1   
    28   23   28 1   
    29   29   30 1   
    30   29   37 1   
    31   30   31 1   
    32   30   33 1   
    33   30   38 1   
    34   31   32 2   
    35   31   41 1   
    36   33   34 1   
    37   33   39 1   
    38   33   40 1   
    39   34   35 1   
    40   34   36 1   
    41   41   42 1   
    42   41   45 1   
    43   42   43 1   
    44   42   46 1   
    45   42   47 1   
    46   43   44 2   
    47   43   48 1   
    48   48   49 1   
    49   48   56 1   
    50   49   50 1   
    51   49   52 1   
    52   49   57 1   
    53   50   51 2   
    54   50   62 1   
    55   52   53 1   
    56   52   58 1   
    57   52   59 1   
    58   53   54 1   
    59   53   55 2   
    60   54   60 1   
    61   54   61 1   
    62   62   63 1   
    63   62   66 1   
    64   63   64 1   
    65   63   67 1   
    66   63   68 1   
    67   64   65 2   
    68   64   69 1   
    69   69   70 1   
    70   69   76 1   
    71   70   71 1   
    72   70   73 1   
    73   70   77 1   
    74   71   72 2   
    75   71   83 1   
    76   73   74 1   
    77   73   75 1   
    78   73   78 1   
    79   74   80 1   
    80   74   81 1   
    81   74   82 1   
    82   75   79 1   
    83   83   84 1   
    84   83   91 1   
    85   84   85 1   
    86   84   87 1   
    87   84   92 1   
    88   85   86 2   
    89   85  102 1   
    90   87   88 1   
    91   87   89 1   
    92   87   93 1   
    93   88   90 1   
    94   88   94 1   
    95   88   95 1   
    96   89   96 1   
    97   89   97 1   
    98   89   98 1   
    99   90   99 1   
   100   90  100 1   
   101   90  101 1   
   102  102  103 1   
   103  102  110 1   
   104  103  104 1   
   105  103  106 1   
   106  103  111 1   
   107  104  105 2   
   108  104  114 1   
   109  106  107 1   
   110  106  112 1   
   111  106  113 1   
   112  107  108 1   
   113  107  109 1   
   114  114  115 1   
   115  114  125 1   
   116  115  116 1   
   117  115  118 1   
   118  115  126 1   
   119  116  117 2   
   120  116  134 1   
   121  118  119 1   
   122  118  127 1   
   123  118  128 1   
   124  119  120 ar  
   125  119  121 ar  
   126  120  122 ar  
   127  120  129 1   
   128  121  123 ar  
   129  121  130 1   
   130  122  124 ar  
   131  122  131 1   
   132  123  124 ar  
   133  123  132 1   
   134  124  133 1   
   135  134  135 1   
   136  134  140 1   
   137  135  136 1   
   138  135  138 1   
   139  135  141 1   
   140  136  137 2   
   141  136  148 1   
   142  138  139 1   
   143  138  142 1   
   144  138  143 1   
   145  139  140 1   
   146  139  144 1   
   147  139  145 1   
   148  140  146 1   
   149  140  147 1   
   150  148  149 1   
   151  148  157 1   
   152  149  150 1   
   153  149  152 1   
   154  149  158 1   
   155  150  151 2   
   156  150  163 1   
   157  152  153 1   
   158  152  159 1   
   159  152  160 1   
   160  153  154 1   
   161  153  161 1   
   162  153  162 1   
   163  154  155 1   
   164  154  156 1   
   165  163  164 1   
   166  163  168 1   
   167  164  165 1   
   168  164  166 1   
   169  164  167 1   
   170  170  171 1   
   171  170  172 1   
   172  173  174 1   
   173  173  175 1   
   174  176  177 1   
   175  176  178 1   
   176  179  180 1   
   177  179  181 1   
@<TRIPOS>SUBSTRUCTURE
     1 MOL         1 TEMP              0 ****  ****    0 ROOT
