@<TRIPOS>MOLECULE
MOL
  189   185     1     0     0
SMALL
resp


@<TRIPOS>ATOM
      1 C1         -0.2950   -3.7660    5.8860 c3        1 MOL     -0.294837
      2 C2          0.5830   -3.2790    4.7110 c         1 MOL      0.622487
      3 O1          0.9720   -2.1080    4.6950 o         1 MOL     -0.585300
      4 H1         -0.2530   -4.8530    5.9440 hc        1 MOL      0.077225
      5 H2          0.0740   -3.3370    6.8170 hc        1 MOL      0.077225
      6 H3         -1.3260   -3.4510    5.7250 hc        1 MOL      0.077225
      7 N1          0.8400   -4.1640    3.7200 n         1 MOL     -0.508676
      8 C3          1.5220   -3.9120    2.4280 c3        1 MOL      0.007174
      9 C4          1.1420   -5.0360    1.4320 c         1 MOL      0.538066
     10 O2          0.8250   -6.1690    1.7650 o         1 MOL     -0.565471
     11 C5          3.0220   -3.9810    2.7790 c3        1 MOL     -0.110986
     12 C6          3.9130   -3.6080    1.6000 c         1 MOL      0.592741
     13 O3          4.9040   -4.3490    1.4300 o         1 MOL     -0.638087
     14 O4          3.6820   -2.5790    0.8960 o         1 MOL     -0.638087
     15 H4          0.5440   -5.1090    3.9340 hn        1 MOL      0.291889
     16 H5          1.2200   -2.9120    2.1200 h1        1 MOL      0.093967
     17 H6          3.3180   -4.9810    3.0940 hc        1 MOL      0.040876
     18 H7          3.3430   -3.4570    3.6800 hc        1 MOL      0.040876
     19 N2          1.2610   -4.7210    0.1340 n         1 MOL     -0.314815
     20 C7          1.0550   -5.6720   -1.0200 c3        1 MOL     -0.001825
     21 C8          2.1790   -5.4520   -2.0180 c         1 MOL      0.436748
     22 O5          2.2620   -6.2290   -2.9630 o         1 MOL     -0.562849
     23 C9         -0.3130   -5.6030   -1.6590 c3        1 MOL      0.131390
     24 C10        -1.4140   -5.1800   -0.6490 c3        1 MOL     -0.066332
     25 C11        -0.7030   -7.0090   -2.2100 c3        1 MOL     -0.153981
     26 C12        -2.8270   -5.0850   -1.2430 c3        1 MOL     -0.269833
     27 H8          1.3480   -3.7330   -0.0480 hn        1 MOL      0.259111
     28 H9          1.1680   -6.6900   -0.6430 h1        1 MOL      0.087806
     29 H10        -0.3060   -4.8970   -2.4870 hc        1 MOL      0.029398
     30 H11        -1.2410   -4.1870   -0.2310 hc        1 MOL      0.038661
     31 H12        -1.3260   -5.8140    0.2360 hc        1 MOL      0.038661
     32 H13         0.0240   -7.4840   -2.8750 hc        1 MOL      0.028645
     33 H14        -0.8620   -7.7340   -1.4150 hc        1 MOL      0.028645
     34 H15        -1.5630   -6.9570   -2.8880 hc        1 MOL      0.028645
     35 H16        -2.8320   -4.4140   -2.1010 hc        1 MOL      0.072883
     36 H17        -3.2560   -6.0740   -1.4320 hc        1 MOL      0.072883
     37 H18        -3.5220   -4.5450   -0.6080 hc        1 MOL      0.072883
     38 N3          2.9810   -4.3920   -1.9810 n         1 MOL     -0.298292
     39 C13         3.8600   -3.9790   -3.0560 c3        1 MOL      0.197504
     40 C14         5.2560   -3.4780   -2.6830 c         1 MOL      0.286995
     41 O6          6.1710   -3.3760   -3.5750 o         1 MOL     -0.569052
     42 C15         3.1360   -2.8770   -3.8900 c3        1 MOL     -0.263261
     43 C16         2.5280   -1.7000   -3.1020 c         1 MOL      0.749470
     44 O7          2.9870   -1.4050   -1.9670 o         1 MOL     -0.677284
     45 O8          1.6660   -1.0180   -3.6970 o         1 MOL     -0.677284
     46 H19         2.9210   -3.7310   -1.2220 hn        1 MOL      0.180935
     47 H20         4.1260   -4.8200   -3.6900 h1        1 MOL      0.052760
     48 H21         2.3140   -3.4810   -4.2660 hc        1 MOL      0.060435
     49 H22         3.7630   -2.6610   -4.7590 hc        1 MOL      0.060435
     50 N4          5.4970   -3.2410   -1.4290 n         1 MOL     -0.018445
     51 C17         6.7890   -2.7010   -0.9560 c3        1 MOL     -0.168749
     52 C18         7.1140   -1.2340   -1.3600 c         1 MOL      0.482619
     53 O9          8.3110   -0.8410   -1.3500 o         1 MOL     -0.631386
     54 H23         4.8030   -3.3970   -0.7100 hn        1 MOL      0.027162
     55 H24         7.6000   -3.3330   -1.3190 h1        1 MOL      0.102404
     56 H25         6.9180   -2.7750    0.1240 h1        1 MOL      0.102404
     57 N5          6.1880   -0.3500   -1.7260 n         1 MOL     -0.114182
     58 C19         6.4420    1.0160   -2.2510 c3        1 MOL     -0.121696
     59 C20         6.8430    2.1120   -1.2250 c         1 MOL      0.464113
     60 O10         6.9270    3.2680   -1.5650 o         1 MOL     -0.542688
     61 C21         5.2940    1.4980   -3.0820 c3        1 MOL     -0.090192
     62 C22         3.9720    1.6960   -2.2650 c         1 MOL      0.789873
     63 O11         3.9080    1.4530   -1.0840 o         1 MOL     -0.716498
     64 O12         3.0320    2.1740   -2.9320 o         1 MOL     -0.716498
     65 H26         5.2090   -0.6120   -1.7220 hn        1 MOL      0.123823
     66 H27         7.3250    0.9870   -2.9030 h1        1 MOL      0.111866
     67 H28         5.1120    0.9440   -3.9960 hc        1 MOL      0.026637
     68 H29         5.6270    2.4780   -3.4210 hc        1 MOL      0.026637
     69 N6          6.9490    1.7950    0.0340 n         1 MOL     -0.217723
     70 C23         7.2070    2.6770    1.1990 c3        1 MOL     -0.297632
     71 C24         6.1350    3.6750    1.5890 c         1 MOL      0.603649
     72 O13         6.2990    4.4440    2.5150 o         1 MOL     -0.607494
     73 H30         6.8500    0.8210    0.2480 hn        1 MOL      0.227503
     74 H31         8.1120    3.2720    1.0620 h1        1 MOL      0.122392
     75 H32         7.3410    2.0760    2.1030 h1        1 MOL      0.122392
     76 N7          5.0170    3.6500    0.8540 n         1 MOL     -0.301389
     77 C25         3.8370    4.4530    1.1040 c3        1 MOL      0.115348
     78 C26         2.6780    3.4530    1.4570 c         1 MOL      0.394890
     79 O14         2.7470    2.2280    1.3410 o         1 MOL     -0.559316
     80 C27         3.2710    5.2740   -0.0600 c3        1 MOL      0.087471
     81 C28         4.2060    6.3620   -0.5810 c3        1 MOL     -0.275629
     82 C29         3.5130    7.3880   -1.4110 c         1 MOL      0.689198
     83 N8          4.0230    7.7520   -2.5330 n         1 MOL     -0.755710
     84 O15         2.4870    8.0290   -1.0950 o         1 MOL     -0.593620
     85 H33         4.9280    2.9670    0.1180 hn        1 MOL      0.235552
     86 H34         3.8680    5.1120    1.9750 h1        1 MOL      0.021438
     87 H35         2.3720    5.7830    0.2860 hc        1 MOL      0.026360
     88 H36         3.0070    4.6060   -0.8870 hc        1 MOL      0.026360
     89 H37         5.1230    5.9770   -1.0310 hc        1 MOL      0.066697
     90 H38         4.5860    6.9670    0.2490 hc        1 MOL      0.066697
     91 H39         4.9070    7.4200   -2.8830 hn        1 MOL      0.339077
     92 H40         3.5330    8.3430   -3.1930 hn        1 MOL      0.339077
     93 N9          1.5960    3.9830    1.9250 n         1 MOL     -0.372998
     94 C30         0.3430    3.2460    2.2400 c3        1 MOL      0.014378
     95 C31        -0.6620    3.5280    1.0900 c         1 MOL      0.460363
     96 O16        -0.8320    4.6950    0.7630 o         1 MOL     -0.596264
     97 C32        -0.2180    3.7930    3.5890 c3        1 MOL      0.244447
     98 C33        -1.5790    3.0590    3.8870 c3        1 MOL     -0.179715
     99 C34         0.7830    3.4880    4.7050 c3        1 MOL     -0.179715
    100 H41         1.6450    4.9850    2.0230 hn        1 MOL      0.256876
    101 H42         0.4790    2.1700    2.3570 h1        1 MOL      0.181579
    102 H43        -0.5050    4.8430    3.6030 hc        1 MOL     -0.041969
    103 H44        -1.7670    3.2260    4.9400 hc        1 MOL      0.024562
    104 H45        -2.3990    3.6200    3.4520 hc        1 MOL      0.024562
    105 H46        -1.5370    2.0320    3.5400 hc        1 MOL      0.024562
    106 H47         1.0630    2.4420    4.5760 hc        1 MOL      0.024562
    107 H48         1.6210    4.1720    4.7510 hc        1 MOL      0.024562
    108 H49         0.3000    3.5750    5.6800 hc        1 MOL      0.024562
    109 N10        -1.2640    2.5000    0.5450 n         1 MOL     -0.174112
    110 C35        -2.4570    2.5850   -0.2860 c3        1 MOL      0.098318
    111 C36        -3.8050    2.6420    0.5290 c         1 MOL      0.260534
    112 O17        -3.8620    2.2140    1.7050 o         1 MOL     -0.352596
    113 C37        -2.3850    1.3850   -1.2170 c3        1 MOL     -0.126011
    114 C38        -3.4090    1.4690   -2.3010 c         1 MOL      0.743344
    115 N11        -3.2720    2.4630   -3.2310 n         1 MOL     -0.832014
    116 O18        -4.3700    0.7590   -2.3690 o         1 MOL     -0.573482
    117 H50        -0.8840    1.6370    0.9020 hn        1 MOL      0.173783
    118 H51        -2.4370    3.4500   -0.9570 h1        1 MOL      0.031232
    119 H52        -2.5370    0.5100   -0.5870 hc        1 MOL      0.051024
    120 H53        -1.4090    1.4240   -1.7050 hc        1 MOL      0.051024
    121 H54        -2.6520    3.2460   -3.0310 hn        1 MOL      0.368463
    122 H55        -4.0630    2.5250   -3.8440 hn        1 MOL      0.368463
    123 N12        -4.9000    3.0420   -0.1410 n         1 MOL     -0.233361
    124 C39        -6.2490    2.8520    0.4880 c3        1 MOL      0.025505
    125 C40        -6.6090    1.3470    0.7040 c         1 MOL      0.380376
    126 O19        -7.2720    1.0490    1.6800 o         1 MOL     -0.530437
    127 C41        -7.3300    3.5870   -0.2600 c3        1 MOL     -0.106519
    128 C42        -7.3620    3.2360   -1.7870 ca        1 MOL      0.003215
    129 C43        -6.4940    3.8400   -2.6960 ca        1 MOL     -0.191142
    130 C44        -8.0940    2.0610   -2.1720 ca        1 MOL     -0.191142
    131 C45        -6.3420    3.3000   -3.9980 ca        1 MOL     -0.299239
    132 C46        -8.0870    1.6210   -3.5390 ca        1 MOL     -0.299239
    133 C47        -7.2350    2.2960   -4.4390 ca        1 MOL      0.437545
    134 O20        -7.3960    1.9520   -5.7560 oh        1 MOL     -0.593374
    135 H56        -4.9160    3.2200   -1.1310 hn        1 MOL      0.077979
    136 H57        -6.2000    3.2870    1.4820 h1        1 MOL      0.074350
    137 H58        -7.2340    4.6730   -0.1890 hc        1 MOL      0.059471
    138 H59        -8.2770    3.3670    0.2450 hc        1 MOL      0.059471
    139 H60        -5.8870    4.6960   -2.4430 ha        1 MOL      0.167940
    140 H61        -8.7490    1.5300   -1.4950 ha        1 MOL      0.167940
    141 H62        -5.7340    3.7540   -4.7700 ha        1 MOL      0.166968
    142 H63        -8.6920    0.7500   -3.7230 ha        1 MOL      0.166968
    143 H64        -8.0780    1.2810   -5.8340 ho        1 MOL      0.431951
    144 N13        -6.1540    0.4890   -0.2100 n         1 MOL     -0.028726
    145 C48        -6.3940   -0.9760   -0.0410 c3        1 MOL     -0.199072
    146 C49        -5.5880   -1.5400    1.1190 c         1 MOL      0.474211
    147 O21        -5.9790   -2.5690    1.7540 o         1 MOL     -0.517777
    148 C50        -5.9420   -1.8130   -1.2840 c3        1 MOL      0.170734
    149 C51        -6.6010   -3.1400   -1.4290 c3        1 MOL     -0.250864
    150 C52        -8.0570   -3.1310   -1.8020 c         1 MOL      0.752502
    151 O22        -8.8410   -3.1720   -0.8220 o         1 MOL     -0.757957
    152 O23        -8.4770   -3.1650   -2.9740 o         1 MOL     -0.757957
    153 H65        -5.7260    0.8030   -1.0710 hn        1 MOL      0.323030
    154 H66        -7.4240   -1.2540    0.2000 h1        1 MOL      0.125229
    155 H67        -4.8700   -1.9860   -1.3160 hc        1 MOL     -0.037041
    156 H68        -6.1140   -1.1760   -2.1490 hc        1 MOL     -0.037041
    157 H69        -6.3970   -3.6790   -0.5070 hc        1 MOL      0.031583
    158 H70        -6.0900   -3.6220   -2.2540 hc        1 MOL      0.031583
    159 N14        -4.5590   -0.8100    1.5810 n         1 MOL     -0.179681
    160 C53        -3.7220   -1.1490    2.7320 c3        1 MOL     -0.069593
    161 C54        -4.0930   -0.5800    4.1360 c         1 MOL      0.493751
    162 O24        -3.9860   -1.3040    5.0940 o         1 MOL     -0.561399
    163 C55        -2.2550   -0.7220    2.4770 c3        1 MOL      0.108019
    164 C56        -1.4890   -1.5730    1.4000 c3        1 MOL     -0.146254
    165 C57        -0.2210   -1.0010    0.9380 c         1 MOL      0.897485
    166 O25         0.5710   -1.7250    0.2580 o         1 MOL     -0.830977
    167 O26         0.2090    0.1450    1.3000 o         1 MOL     -0.830977
    168 H71        -4.3720   -0.0800    0.8950 hn        1 MOL     -0.002413
    169 H72        -3.6220   -2.2110    2.9400 h1        1 MOL      0.066946
    170 H73        -1.6930   -0.7830    3.4120 hc        1 MOL     -0.010369
    171 H74        -2.1870    0.3330    2.2310 hc        1 MOL     -0.010369
    172 H75        -2.1700   -1.6540    0.5540 hc        1 MOL      0.054199
    173 H76        -1.3920   -2.6260    1.6610 hc        1 MOL      0.054199
    174 N15        -4.5730    0.6170    4.1690 n         1 MOL     -0.079191
    175 C58        -5.0290    1.2910    5.3170 c3        1 MOL     -0.270107
    176 H77        -5.3670    2.2900    5.0420 h1        1 MOL      0.089479
    177 H78        -5.8570    0.7360    5.7590 h1        1 MOL      0.089479
    178 H79        -4.2170    1.3690    6.0400 h1        1 MOL      0.089479
    179 H80        -4.5530    1.1520    3.3160 hn        1 MOL      0.148747
    180 Ca1         2.7250   -0.2550    0.3960 Ca        1 MOL      1.761888
    181 O27         2.5460   -0.6680    3.1030 oh        1 MOL     -0.912194
    182 O28         1.0580    0.8300   -1.8450 oh        1 MOL     -0.912194
    183 H81         2.7630   -0.0490    3.7970 ho        1 MOL      0.427179
    184 H82         1.1430    0.0610   -2.4050 ho        1 MOL      0.427179
    185 H83         1.9940   -1.3290    3.5290 ho        1 MOL      0.427179
    186 H84         1.5910    1.5000   -2.2620 ho        1 MOL      0.427179
    187 O29         5.1440   -0.2100    1.7200 oh        1 MOL     -0.912194
    188 H85         4.8490   -0.3000    2.6260 ho        1 MOL      0.427179
    189 H86         6.0320   -0.5670    1.7130 ho        1 MOL      0.427179
@<TRIPOS>BOND
     1    1    2 1   
     2    1    4 1   
     3    1    5 1   
     4    1    6 1   
     5    2    3 2   
     6    2    7 1   
     7    7    8 1   
     8    7   15 1   
     9    8    9 1   
    10    8   11 1   
    11    8   16 1   
    12    9   10 2   
    13    9   19 1   
    14   11   12 1   
    15   11   17 1   
    16   11   18 1   
    17   12   13 1   
    18   12   14 1   
    19   19   20 1   
    20   19   27 1   
    21   20   21 1   
    22   20   23 1   
    23   20   28 1   
    24   21   22 2   
    25   21   38 1   
    26   23   24 1   
    27   23   25 1   
    28   23   29 1   
    29   24   26 1   
    30   24   30 1   
    31   24   31 1   
    32   25   32 1   
    33   25   33 1   
    34   25   34 1   
    35   26   35 1   
    36   26   36 1   
    37   26   37 1   
    38   38   39 1   
    39   38   46 1   
    40   39   40 1   
    41   39   42 1   
    42   39   47 1   
    43   40   41 2   
    44   40   50 1   
    45   42   43 1   
    46   42   48 1   
    47   42   49 1   
    48   43   44 1   
    49   43   45 1   
    50   50   51 1   
    51   50   54 1   
    52   51   52 1   
    53   51   55 1   
    54   51   56 1   
    55   52   53 2   
    56   52   57 1   
    57   57   58 1   
    58   57   65 1   
    59   58   59 1   
    60   58   61 1   
    61   58   66 1   
    62   59   60 2   
    63   59   69 1   
    64   61   62 1   
    65   61   67 1   
    66   61   68 1   
    67   62   63 1   
    68   62   64 1   
    69   69   70 1   
    70   69   73 1   
    71   70   71 1   
    72   70   74 1   
    73   70   75 1   
    74   71   72 2   
    75   71   76 1   
    76   76   77 1   
    77   76   85 1   
    78   77   78 1   
    79   77   80 1   
    80   77   86 1   
    81   78   79 2   
    82   78   93 1   
    83   80   81 1   
    84   80   87 1   
    85   80   88 1   
    86   81   82 1   
    87   81   89 1   
    88   81   90 1   
    89   82   83 1   
    90   82   84 2   
    91   83   91 1   
    92   83   92 1   
    93   93   94 1   
    94   93  100 1   
    95   94   95 1   
    96   94   97 1   
    97   94  101 1   
    98   95   96 2   
    99   95  109 1   
   100   97   98 1   
   101   97   99 1   
   102   97  102 1   
   103   98  103 1   
   104   98  104 1   
   105   98  105 1   
   106   99  106 1   
   107   99  107 1   
   108   99  108 1   
   109  109  110 1   
   110  109  117 1   
   111  110  111 1   
   112  110  113 1   
   113  110  118 1   
   114  111  112 2   
   115  111  123 1   
   116  113  114 1   
   117  113  119 1   
   118  113  120 1   
   119  114  115 1   
   120  114  116 2   
   121  115  121 1   
   122  115  122 1   
   123  123  124 1   
   124  123  135 1   
   125  124  125 1   
   126  124  127 1   
   127  124  136 1   
   128  125  126 2   
   129  125  144 1   
   130  127  128 1   
   131  127  137 1   
   132  127  138 1   
   133  128  129 ar  
   134  128  130 ar  
   135  129  131 ar  
   136  129  139 1   
   137  130  132 ar  
   138  130  140 1   
   139  131  133 ar  
   140  131  141 1   
   141  132  133 ar  
   142  132  142 1   
   143  133  134 1   
   144  134  143 1   
   145  144  145 1   
   146  144  153 1   
   147  145  146 1   
   148  145  148 1   
   149  145  154 1   
   150  146  147 2   
   151  146  159 1   
   152  148  149 1   
   153  148  155 1   
   154  148  156 1   
   155  149  150 1   
   156  149  157 1   
   157  149  158 1   
   158  150  151 1   
   159  150  152 1   
   160  159  160 1   
   161  159  168 1   
   162  160  161 1   
   163  160  163 1   
   164  160  169 1   
   165  161  162 2   
   166  161  174 1   
   167  163  164 1   
   168  163  170 1   
   169  163  171 1   
   170  164  165 1   
   171  164  172 1   
   172  164  173 1   
   173  165  166 1   
   174  165  167 1   
   175  174  175 1   
   176  174  179 1   
   177  175  176 1   
   178  175  177 1   
   179  175  178 1   
   180  181  183 1   
   181  181  185 1   
   182  182  184 1   
   183  182  186 1   
   184  187  188 1   
   185  187  189 1   
@<TRIPOS>SUBSTRUCTURE
     1 MOL         1 TEMP              0 ****  ****    0 ROOT
