@<TRIPOS>MOLECULE
MOL
  179   176     1     0     0
SMALL
resp


@<TRIPOS>ATOM
      1 C1          0.8790    3.6210    6.4230 c3        1 MOL     -0.368652
      2 C2          0.6690    3.0090    4.9790 c         1 MOL      0.703913
      3 O1          1.7030    2.8000    4.3540 o         1 MOL     -0.575944
      4 H1          1.7330    3.1410    6.9000 hc        1 MOL      0.093747
      5 H2          1.0640    4.6920    6.3410 hc        1 MOL      0.093747
      6 H3         -0.0150    3.4520    7.0230 hc        1 MOL      0.093747
      7 N1         -0.5370    2.7920    4.5260 n         1 MOL     -0.540248
      8 C3         -0.9150    2.4600    3.1380 c3        1 MOL     -0.017353
      9 C4         -1.0320    3.7450    2.2210 c         1 MOL      0.610737
     10 O2         -1.6240    4.7580    2.6050 o         1 MOL     -0.546396
     11 C5         -2.2860    1.7940    3.2320 c3        1 MOL     -0.213462
     12 C6         -2.8120    1.1500    2.0120 c         1 MOL      0.670092
     13 O3         -2.3450    1.4710    0.8830 o         1 MOL     -0.713614
     14 O4         -3.7230    0.2610    2.0400 o         1 MOL     -0.713614
     15 H4         -1.3260    2.8250    5.1570 hn        1 MOL      0.310708
     16 H5         -0.2300    1.7420    2.7070 h1        1 MOL      0.086849
     17 H6         -3.0190    2.5420    3.5520 hc        1 MOL      0.076447
     18 H7         -2.1380    0.9550    3.9110 hc        1 MOL      0.076447
     19 N2         -0.4250    3.6410    1.0280 n         1 MOL     -0.261847
     20 C7         -0.3090    4.8260    0.1840 c3        1 MOL     -0.378171
     21 C8         -1.6340    5.2930   -0.6100 c         1 MOL      0.642920
     22 O5         -1.8500    6.4260   -0.9890 o         1 MOL     -0.585450
     23 C9          1.0120    4.7400   -0.6090 c3        1 MOL      0.187390
     24 C10         1.2830    5.9420   -1.5510 c3        1 MOL     -0.152739
     25 C11         2.5240    5.5690   -2.4210 c3        1 MOL      0.019597
     26 C12         2.8400    6.6260   -3.4600 c3        1 MOL     -0.193388
     27 N3          1.9110    6.4980   -4.6220 n4        1 MOL     -0.298452
     28 H8          0.0640    2.7970    0.7900 hn        1 MOL      0.200203
     29 H9         -0.1170    5.6520    0.8740 h1        1 MOL      0.156338
     30 H10         0.9060    3.8340   -1.2090 hc        1 MOL      0.036638
     31 H11         1.9000    4.6130    0.0200 hc        1 MOL      0.036638
     32 H12         1.4360    6.7620   -0.8500 hc        1 MOL      0.056049
     33 H13         0.4850    6.1140   -2.2710 hc        1 MOL      0.056049
     34 H14         2.1420    4.6970   -2.9560 hc        1 MOL      0.059284
     35 H15         3.4050    5.4870   -1.7860 hc        1 MOL      0.059284
     36 H16         3.8420    6.3280   -3.7560 hx        1 MOL      0.157409
     37 H17         2.7500    7.6510   -3.0960 hx        1 MOL      0.157409
     38 H18         2.1510    7.2030   -5.3090 hn        1 MOL      0.315573
     39 H19         2.0130    5.6370   -5.1470 hn        1 MOL      0.315573
     40 H20         0.9600    6.6380   -4.3340 hn        1 MOL      0.315573
     41 N4         -2.5290    4.3170   -0.8190 n         1 MOL     -0.323599
     42 C13        -3.7770    4.4850   -1.5960 c3        1 MOL     -0.016886
     43 C14        -5.0450    4.0100   -0.7710 c         1 MOL      0.416009
     44 O6         -6.1950    4.0870   -1.2330 o         1 MOL     -0.514240
     45 C15        -3.7050    3.8030   -3.0040 c3        1 MOL     -0.417669
     46 C16        -3.4840    2.2340   -2.9180 c         1 MOL      0.847827
     47 O7         -3.1230    1.7030   -3.9660 o         1 MOL     -0.737495
     48 O8         -3.4040    1.5620   -1.8210 o         1 MOL     -0.737495
     49 H21        -2.3330    3.4040   -0.4170 hn        1 MOL      0.200282
     50 H22        -3.8660    5.5650   -1.7320 h1        1 MOL      0.132866
     51 H23        -2.9300    4.3530   -3.5440 hc        1 MOL      0.123870
     52 H24        -4.6640    3.8730   -3.5170 hc        1 MOL      0.123870
     53 N5         -4.7760    3.3920    0.3640 n         1 MOL     -0.233606
     54 C17        -5.7360    2.8960    1.4080 c3        1 MOL     -0.103495
     55 C18        -6.4690    1.5960    1.1300 c         1 MOL      0.487950
     56 O9         -7.6050    1.3880    1.5150 o         1 MOL     -0.567762
     57 H25        -3.8240    3.0820    0.4910 hn        1 MOL      0.186729
     58 H26        -6.5380    3.6280    1.5680 h1        1 MOL      0.101525
     59 H27        -5.1910    2.8030    2.3490 h1        1 MOL      0.101525
     60 N6         -5.9590    0.7110    0.2360 n         1 MOL     -0.012855
     61 C19        -6.6470   -0.3720   -0.3810 c3        1 MOL     -0.111806
     62 C20        -6.8630   -1.6270    0.4820 c         1 MOL      0.536472
     63 O10        -7.9020   -2.2160    0.3510 o         1 MOL     -0.554693
     64 C21        -6.0760   -0.7150   -1.7490 c3        1 MOL     -0.262016
     65 C22        -4.8580   -1.6410   -1.7060 c         1 MOL      0.348528
     66 N7         -4.7310   -2.5310   -2.6450 n         1 MOL     -0.467236
     67 O11        -4.0500   -1.6470   -0.8080 o         1 MOL     -0.441686
     68 H28        -5.0120    0.9840    0.0140 hn        1 MOL      0.059906
     69 H29        -7.5890    0.1250   -0.6160 h1        1 MOL      0.116457
     70 H30        -5.9360    0.1880   -2.3470 hc        1 MOL      0.127782
     71 H31        -6.9260   -1.1660   -2.2620 hc        1 MOL      0.127782
     72 H32        -5.3700   -2.5890   -3.4230 hn        1 MOL      0.289276
     73 H33        -3.8180   -2.9620   -2.6810 hn        1 MOL      0.289276
     74 N8         -5.9650   -1.8450    1.4230 n         1 MOL     -0.222081
     75 C23        -6.0390   -3.0250    2.2790 c3        1 MOL     -0.049528
     76 C24        -4.7330   -3.8990    2.3230 c         1 MOL      0.453122
     77 O12        -4.6410   -4.9030    2.9920 o         1 MOL     -0.552595
     78 H34        -5.2430   -1.1600    1.5730 hn        1 MOL      0.206971
     79 H35        -6.9720   -3.5520    2.0730 h1        1 MOL      0.076707
     80 H36        -6.1930   -2.5960    3.2710 h1        1 MOL      0.076707
     81 N9         -3.6700   -3.5300    1.6080 n         1 MOL     -0.166981
     82 C25        -2.4000   -4.2100    1.5520 c3        1 MOL     -0.009966
     83 C26        -1.2030   -3.3290    1.1000 c         1 MOL      0.482158
     84 O13        -1.4340   -2.4140    0.3390 o         1 MOL     -0.602438
     85 C27        -2.5640   -5.4710    0.7480 c3        1 MOL     -0.191335
     86 C28        -2.5610   -5.3700   -0.7200 ca        1 MOL      0.090143
     87 C29        -1.3370   -5.0670   -1.4010 ca        1 MOL     -0.167620
     88 C30        -3.7290   -5.5960   -1.5050 ca        1 MOL     -0.167620
     89 C31        -1.3060   -4.9690   -2.8200 ca        1 MOL     -0.247785
     90 C32        -3.6590   -5.3870   -2.8670 ca        1 MOL     -0.247785
     91 C33        -2.4880   -5.0060   -3.5540 ca        1 MOL      0.311980
     92 O14        -2.4400   -4.8020   -4.9360 oh        1 MOL     -0.516289
     93 H37        -3.7360   -2.7360    1.0060 hn        1 MOL      0.174925
     94 H38        -2.1660   -4.5620    2.5580 h1        1 MOL      0.082700
     95 H39        -3.4960   -5.9360    1.0780 hc        1 MOL      0.087822
     96 H40        -1.7670   -6.1610    1.0270 hc        1 MOL      0.087822
     97 H41        -0.4670   -4.9620   -0.7800 ha        1 MOL      0.160537
     98 H42        -4.6430   -5.9290   -1.0350 ha        1 MOL      0.160537
     99 H43        -0.3260   -4.8190   -3.2580 ha        1 MOL      0.140192
    100 H44        -4.5530   -5.3090   -3.4500 ha        1 MOL      0.140192
    101 H45        -1.5180   -4.8320   -5.1920 ho        1 MOL      0.369315
    102 N10        -0.0050   -3.6660    1.5510 n         1 MOL     -0.464509
    103 C34         1.2300   -2.8760    1.2880 c3        1 MOL     -0.047343
    104 C35         2.3710   -3.8180    0.8410 c         1 MOL      0.349861
    105 O15         2.5370   -4.8950    1.3480 o         1 MOL     -0.497147
    106 C36         1.6510   -2.0360    2.5480 c3        1 MOL      0.115534
    107 C37         2.1120   -2.9280    3.7470 c3        1 MOL     -0.086493
    108 C38         0.4180   -1.2010    2.8760 c3        1 MOL     -0.240609
    109 C39         2.2480   -2.2170    5.0830 c3        1 MOL     -0.099654
    110 H46         0.0560   -4.4790    2.1430 hn        1 MOL      0.332060
    111 H47         1.0100   -2.2370    0.4350 h1        1 MOL      0.133086
    112 H48         2.4870   -1.4960    2.1150 hc        1 MOL     -0.019084
    113 H49         3.0920   -3.3800    3.5610 hc        1 MOL      0.051227
    114 H50         1.4220   -3.7540    3.9180 hc        1 MOL      0.051227
    115 H51        -0.3720   -1.7950    3.3310 hc        1 MOL      0.088602
    116 H52         0.7740   -0.3730    3.4930 hc        1 MOL      0.088602
    117 H53         0.0760   -0.7750    1.9320 hc        1 MOL      0.088602
    118 H54         1.3230   -1.9880    5.6040 hc        1 MOL      0.031046
    119 H55         2.9430   -2.6850    5.7780 hc        1 MOL      0.031046
    120 H56         2.7400   -1.2540    4.9750 hc        1 MOL      0.031046
    121 N11         3.1430   -3.3040   -0.0950 n         1 MOL     -0.160597
    122 C40         4.4210   -3.8740   -0.5190 c3        1 MOL      0.090588
    123 C41         5.5790   -2.9760   -0.1870 c         1 MOL      0.409211
    124 O16         5.3500   -1.8300    0.3200 o         1 MOL     -0.458539
    125 C42         4.3200   -4.3050   -1.9890 c3        1 MOL      0.022383
    126 O17         4.1230   -3.1370   -2.8000 oh        1 MOL     -0.539923
    127 H57         2.9010   -2.4790   -0.6230 hn        1 MOL      0.168915
    128 H58         4.5750   -4.8050    0.0110 h1        1 MOL      0.040452
    129 H59         3.5120   -5.0370   -2.0250 h1        1 MOL      0.066673
    130 H60         5.1760   -4.8490   -2.4110 h1        1 MOL      0.066673
    131 H61         3.1930   -2.9180   -2.6940 ho        1 MOL      0.359690
    132 N12         6.7930   -3.4300   -0.4130 n         1 MOL     -0.315545
    133 C43         7.9840   -2.6800    0.0620 c3        1 MOL     -0.042344
    134 C44         8.2700   -1.2810   -0.4000 c         1 MOL      0.497946
    135 O18         8.8740   -0.5070    0.3880 o         1 MOL     -0.511338
    136 C45         9.2190   -3.5800   -0.2830 c3        1 MOL     -0.224210
    137 H62         6.9840   -4.3060   -0.8820 hn        1 MOL      0.256857
    138 H63         7.9710   -2.6550    1.1530 h1        1 MOL      0.132657
    139 H64         9.0420   -4.5320    0.2110 hc        1 MOL      0.083933
    140 H65         9.2680   -3.7950   -1.3470 hc        1 MOL      0.083933
    141 H66        10.2190   -3.2920    0.0450 hc        1 MOL      0.083933
    142 N13         7.6950   -0.8240   -1.5460 n         1 MOL     -0.398069
    143 C46         7.6610    0.5300   -2.0270 c3        1 MOL      0.126573
    144 C47         6.8760    1.4940   -1.0900 c         1 MOL      0.308875
    145 O19         7.2680    2.6330   -0.9240 o         1 MOL     -0.484777
    146 C48         7.1310    0.6320   -3.5040 c3        1 MOL     -0.283232
    147 H67         7.0350   -1.4540   -1.9840 hn        1 MOL      0.249826
    148 H68         8.7020    0.8790   -2.0370 h1        1 MOL      0.090663
    149 H69         7.1900    1.6170   -3.9690 hc        1 MOL      0.083238
    150 H70         7.7420   -0.0950   -4.0380 hc        1 MOL      0.083238
    151 H71         6.0980    0.2660   -3.4830 hc        1 MOL      0.083238
    152 N14         5.6940    1.0710   -0.6260 n         1 MOL     -0.097560
    153 C49         4.8300    1.9490    0.1870 c3        1 MOL     -0.091668
    154 C50         5.4150    2.0690    1.5980 c         1 MOL      0.459607
    155 O20         5.4750    3.1910    2.1660 o         1 MOL     -0.526601
    156 C51         3.4310    1.3370    0.3020 c3        1 MOL      0.093704
    157 C52         2.7590    1.1320   -1.0310 c3        1 MOL      0.065301
    158 C53         1.3740    0.5640   -0.9180 c         1 MOL      0.755722
    159 O21         0.4390    1.2140   -0.3610 o         1 MOL     -0.748729
    160 O22         1.0830   -0.6030   -1.3150 o         1 MOL     -0.748729
    161 H72         5.3870    0.1350   -0.8570 hn        1 MOL      0.229117
    162 H73         4.7360    2.9400   -0.2790 h1        1 MOL      0.063662
    163 H74         2.7500    1.8920    0.9510 hc        1 MOL     -0.016764
    164 H75         3.5350    0.3340    0.7190 hc        1 MOL     -0.016764
    165 H76         3.4930    0.4760   -1.4900 hc        1 MOL     -0.115803
    166 H77         2.6530    2.0210   -1.6570 hc        1 MOL     -0.115803
    167 N15         6.0200    1.0150    2.1290 n         1 MOL     -0.077764
    168 C54         6.7660    1.0220    3.3440 c3        1 MOL     -0.329363
    169 H78         7.2190    0.0430    3.4970 h1        1 MOL      0.124177
    170 H79         7.5480    1.7790    3.2870 h1        1 MOL      0.124177
    171 H80         6.1010    1.2480    4.1790 h1        1 MOL      0.124177
    172 H81         5.8930    0.1050    1.6960 hn        1 MOL      0.147421
    173 Ca1        -1.6260   -0.2200   -0.9780 Ca        1 MOL      1.757392
    174 O23        -1.9000   -1.7230   -3.0780 oh        1 MOL     -0.795638
    175 H82        -1.3570   -2.2200   -3.6880 ho        1 MOL      0.380029
    176 H83        -2.5760   -1.3170   -3.6330 ho        1 MOL      0.380029
    177 O24        -0.6210    0.9310   -3.3030 oh        1 MOL     -0.795638
    178 H84        -1.3290    1.4430   -3.7040 ho        1 MOL      0.380029
    179 H85         0.1520    1.1450   -3.8070 ho        1 MOL      0.380029
@<TRIPOS>BOND
     1    1    2 1   
     2    1    4 1   
     3    1    5 1   
     4    1    6 1   
     5    2    3 2   
     6    2    7 1   
     7    7    8 1   
     8    7   15 1   
     9    8    9 1   
    10    8   11 1   
    11    8   16 1   
    12    9   10 2   
    13    9   19 1   
    14   11   12 1   
    15   11   17 1   
    16   11   18 1   
    17   12   13 1   
    18   12   14 1   
    19   19   20 1   
    20   19   28 1   
    21   20   21 1   
    22   20   23 1   
    23   20   29 1   
    24   21   22 2   
    25   21   41 1   
    26   23   24 1   
    27   23   30 1   
    28   23   31 1   
    29   24   25 1   
    30   24   32 1   
    31   24   33 1   
    32   25   26 1   
    33   25   34 1   
    34   25   35 1   
    35   26   27 1   
    36   26   36 1   
    37   26   37 1   
    38   27   38 1   
    39   27   39 1   
    40   27   40 1   
    41   41   42 1   
    42   41   49 1   
    43   42   43 1   
    44   42   45 1   
    45   42   50 1   
    46   43   44 2   
    47   43   53 1   
    48   45   46 1   
    49   45   51 1   
    50   45   52 1   
    51   46   47 1   
    52   46   48 1   
    53   53   54 1   
    54   53   57 1   
    55   54   55 1   
    56   54   58 1   
    57   54   59 1   
    58   55   56 2   
    59   55   60 1   
    60   60   61 1   
    61   60   68 1   
    62   61   62 1   
    63   61   64 1   
    64   61   69 1   
    65   62   63 2   
    66   62   74 1   
    67   64   65 1   
    68   64   70 1   
    69   64   71 1   
    70   65   66 1   
    71   65   67 2   
    72   66   72 1   
    73   66   73 1   
    74   74   75 1   
    75   74   78 1   
    76   75   76 1   
    77   75   79 1   
    78   75   80 1   
    79   76   77 2   
    80   76   81 1   
    81   81   82 1   
    82   81   93 1   
    83   82   83 1   
    84   82   85 1   
    85   82   94 1   
    86   83   84 2   
    87   83  102 1   
    88   85   86 1   
    89   85   95 1   
    90   85   96 1   
    91   86   87 ar  
    92   86   88 ar  
    93   87   89 ar  
    94   87   97 1   
    95   88   90 ar  
    96   88   98 1   
    97   89   91 ar  
    98   89   99 1   
    99   90   91 ar  
   100   90  100 1   
   101   91   92 1   
   102   92  101 1   
   103  102  103 1   
   104  102  110 1   
   105  103  104 1   
   106  103  106 1   
   107  103  111 1   
   108  104  105 2   
   109  104  121 1   
   110  106  107 1   
   111  106  108 1   
   112  106  112 1   
   113  107  109 1   
   114  107  113 1   
   115  107  114 1   
   116  108  115 1   
   117  108  116 1   
   118  108  117 1   
   119  109  118 1   
   120  109  119 1   
   121  109  120 1   
   122  121  122 1   
   123  121  127 1   
   124  122  123 1   
   125  122  125 1   
   126  122  128 1   
   127  123  124 2   
   128  123  132 1   
   129  125  126 1   
   130  125  129 1   
   131  125  130 1   
   132  126  131 1   
   133  132  133 1   
   134  132  137 1   
   135  133  134 1   
   136  133  136 1   
   137  133  138 1   
   138  134  135 2   
   139  134  142 1   
   140  136  139 1   
   141  136  140 1   
   142  136  141 1   
   143  142  143 1   
   144  142  147 1   
   145  143  144 1   
   146  143  146 1   
   147  143  148 1   
   148  144  145 2   
   149  144  152 1   
   150  146  149 1   
   151  146  150 1   
   152  146  151 1   
   153  152  153 1   
   154  152  161 1   
   155  153  154 1   
   156  153  156 1   
   157  153  162 1   
   158  154  155 2   
   159  154  167 1   
   160  156  157 1   
   161  156  163 1   
   162  156  164 1   
   163  157  158 1   
   164  157  165 1   
   165  157  166 1   
   166  158  159 1   
   167  158  160 1   
   168  167  168 1   
   169  167  172 1   
   170  168  169 1   
   171  168  170 1   
   172  168  171 1   
   173  174  175 1   
   174  174  176 1   
   175  177  178 1   
   176  177  179 1   
@<TRIPOS>SUBSTRUCTURE
     1 MOL         1 TEMP              0 ****  ****    0 ROOT
