@<TRIPOS>MOLECULE
MOL
  175   173     1     0     0
SMALL
resp


@<TRIPOS>ATOM
      1 C1         -0.0620    3.8620    5.6680 c3        1 MOL     -0.337015
      2 C2         -0.4320    3.4760    4.2070 c         1 MOL      0.700087
      3 O1          0.2120    4.0410    3.3730 o         1 MOL     -0.550692
      4 H1         -0.6870    3.2990    6.3610 hc        1 MOL      0.075249
      5 H2          0.9860    3.6280    5.8520 hc        1 MOL      0.075249
      6 H3         -0.2290    4.9300    5.8150 hc        1 MOL      0.075249
      7 N1         -1.4800    2.6740    3.9900 n         1 MOL     -0.591329
      8 C3         -1.9900    2.2760    2.6500 c3        1 MOL      0.121759
      9 C4         -2.4530    3.6090    1.9650 c         1 MOL      0.562225
     10 O2         -3.4110    4.2660    2.3890 o         1 MOL     -0.587271
     11 C5         -3.0710    1.2160    2.8820 c3        1 MOL     -0.257867
     12 C6         -3.5510    0.6500    1.5520 c         1 MOL      0.932903
     13 O3         -2.8720    0.8920    0.5370 o         1 MOL     -0.781488
     14 O4         -4.5940   -0.0730    1.5900 o         1 MOL     -0.781488
     15 H4         -1.9490    2.1540    4.7170 hn        1 MOL      0.306352
     16 H5         -1.1680    1.8110    2.0970 h1        1 MOL      0.068338
     17 H6         -3.8810    1.6360    3.4870 hc        1 MOL      0.050021
     18 H7         -2.6550    0.3090    3.3280 hc        1 MOL      0.050021
     19 N2         -1.7740    3.9880    0.8440 n         1 MOL     -0.320940
     20 C7         -2.0220    5.2970    0.2850 c3        1 MOL      0.295162
     21 C8         -3.0720    5.3690   -0.7990 c         1 MOL      0.360517
     22 O5         -3.5760    6.4550   -1.0620 o         1 MOL     -0.566589
     23 C9         -0.6700    5.7690   -0.1380 c3        1 MOL     -0.424654
     24 H8         -1.0710    3.4050    0.4160 hn        1 MOL      0.258588
     25 H9         -2.4400    5.9770    1.0240 h1        1 MOL      0.021646
     26 H10        -0.7730    6.8330   -0.3290 hc        1 MOL      0.097493
     27 H11        -0.0660    5.5820    0.7480 hc        1 MOL      0.097493
     28 H12        -0.4310    5.2820   -1.0810 hc        1 MOL      0.097493
     29 N3         -3.4130    4.2580   -1.4310 n         1 MOL     -0.169460
     30 C10        -4.5930    4.1890   -2.2610 c3        1 MOL      0.011894
     31 C11        -5.7470    3.6960   -1.4870 c         1 MOL      0.518234
     32 O6         -6.8530    4.0440   -1.7200 o         1 MOL     -0.565081
     33 C12        -4.4450    3.5330   -3.6190 c3        1 MOL     -0.055906
     34 C13        -3.8780    2.1000   -3.5790 c         1 MOL      0.695828
     35 O7         -4.2400    1.2590   -4.4530 o         1 MOL     -0.726240
     36 O8         -3.1620    1.7870   -2.6010 o         1 MOL     -0.726240
     37 H13        -2.7930    3.4640   -1.3570 hn        1 MOL      0.202252
     38 H14        -4.9070    5.1910   -2.5290 h1        1 MOL      0.059499
     39 H15        -3.6960    4.0980   -4.1800 hc        1 MOL      0.013152
     40 H16        -5.3780    3.5720   -4.1910 hc        1 MOL      0.013152
     41 N4         -5.5290    2.8980   -0.4290 n         1 MOL     -0.100294
     42 C14        -6.5480    2.3850    0.4780 c3        1 MOL     -0.014783
     43 C15        -7.3090    1.1990    0.0030 c         1 MOL      0.492466
     44 O9         -8.4980    1.2570   -0.0160 o         1 MOL     -0.579166
     45 H17        -4.5850    2.5920   -0.2640 hn        1 MOL     -0.078164
     46 H18        -7.1750    3.2010    0.8440 h1        1 MOL      0.049963
     47 H19        -6.0190    1.9780    1.3360 h1        1 MOL      0.049963
     48 N5         -6.5670    0.2490   -0.5140 n         1 MOL     -0.190326
     49 C16        -7.0820   -1.0230   -1.1780 c3        1 MOL     -0.032967
     50 C17        -7.1110   -2.3080   -0.2990 c         1 MOL      0.361261
     51 O10        -7.7710   -3.2970   -0.5770 o         1 MOL     -0.545278
     52 C18        -6.3300   -1.3710   -2.4680 c3        1 MOL     -0.092049
     53 C19        -4.9180   -1.9640   -2.2670 c         1 MOL      0.464211
     54 N6         -4.5210   -3.0840   -2.8640 n         1 MOL     -0.722469
     55 O11        -4.1570   -1.4540   -1.4650 o         1 MOL     -0.343637
     56 H20        -5.5620    0.3030   -0.4660 hn        1 MOL      0.125229
     57 H21        -8.1150   -0.7790   -1.4180 h1        1 MOL      0.112302
     58 H22        -6.2000   -0.4720   -3.0630 hc        1 MOL      0.055062
     59 H23        -7.0030   -2.0520   -2.9870 hc        1 MOL      0.055062
     60 H24        -5.0850   -3.5420   -3.5620 hn        1 MOL      0.341687
     61 H25        -3.5600   -3.3900   -2.7570 hn        1 MOL      0.341687
     62 N7         -6.4560   -2.3350    0.8720 n         1 MOL     -0.113217
     63 C20        -6.5120   -3.4300    1.9310 c3        1 MOL     -0.196947
     64 C21        -5.2230   -4.2560    1.9170 c         1 MOL      0.680140
     65 O12        -5.2470   -5.2390    2.6100 o         1 MOL     -0.596361
     66 H26        -6.0680   -1.4370    1.0900 hn        1 MOL      0.189382
     67 H27        -7.3990   -4.0530    1.8510 h1        1 MOL      0.105107
     68 H28        -6.5740   -2.9140    2.8920 h1        1 MOL      0.105107
     69 N8         -4.1760   -3.9060    1.1190 n         1 MOL     -0.469234
     70 C22        -2.7800   -4.4520    1.2340 c3        1 MOL     -0.008570
     71 C23        -1.6800   -3.4000    1.0990 c         1 MOL      0.710612
     72 O13        -1.9460   -2.3030    0.5850 o         1 MOL     -0.618196
     73 C24        -2.4690   -5.6280    0.4190 c3        1 MOL      0.293062
     74 C25        -3.3340   -6.8440    0.7720 c3        1 MOL     -0.343556
     75 O14        -2.6340   -5.6390   -0.9370 oh        1 MOL     -0.594648
     76 H29        -4.3120   -3.0740    0.5550 hn        1 MOL      0.241312
     77 H30        -2.6660   -4.7030    2.2860 h1        1 MOL      0.066831
     78 H31        -1.4160   -5.8830    0.5900 h1        1 MOL      0.053380
     79 H32        -3.5050   -6.0060   -1.1080 ho        1 MOL      0.388683
     80 H33        -3.1410   -6.9570    1.8350 hc        1 MOL      0.083511
     81 H34        -4.3960   -6.7380    0.5350 hc        1 MOL      0.083511
     82 H35        -2.9190   -7.7510    0.3400 hc        1 MOL      0.083511
     83 N9         -0.5170   -3.6810    1.6580 n         1 MOL     -0.546937
     84 C26         0.6970   -2.8140    1.5860 c3        1 MOL      0.054807
     85 C27         1.6490   -3.2540    0.4290 c         1 MOL      0.471614
     86 O15         1.9890   -4.4380    0.3380 o         1 MOL     -0.578771
     87 C28         1.4060   -2.9420    2.9970 c3        1 MOL      0.050893
     88 C29         0.6010   -2.1150    4.0100 c3        1 MOL      0.111667
     89 C30         2.9300   -2.5580    2.9490 c3        1 MOL     -0.071072
     90 C31         1.1500   -2.1570    5.4860 c3        1 MOL     -0.263250
     91 H36        -0.4970   -4.5030    2.2320 hn        1 MOL      0.248163
     92 H37         0.4350   -1.7580    1.5080 h1        1 MOL      0.070090
     93 H38         1.3200   -3.9780    3.3070 hc        1 MOL      0.016022
     94 H39        -0.4360   -2.4280    3.9680 hc        1 MOL     -0.005789
     95 H40         0.5710   -1.0870    3.6560 hc        1 MOL     -0.005789
     96 H41         3.3560   -3.0890    3.8070 hc        1 MOL      0.006573
     97 H42         3.4860   -2.8490    2.0620 hc        1 MOL      0.006573
     98 H43         3.0640   -1.5040    3.1720 hc        1 MOL      0.006573
     99 H44         2.2030   -1.8940    5.4490 hc        1 MOL      0.054338
    100 H45         0.6610   -1.3750    6.0640 hc        1 MOL      0.054338
    101 H46         0.8930   -3.1640    5.8340 hc        1 MOL      0.054338
    102 N10         2.0830   -2.2410   -0.2800 n         1 MOL     -0.245024
    103 C32         3.0850   -2.1970   -1.3200 c3        1 MOL      0.155154
    104 C33         4.4230   -1.6120   -0.8120 c         1 MOL      0.366964
    105 O16         4.4410   -0.8790    0.1900 o         1 MOL     -0.231897
    106 C34         2.5790   -1.2720   -2.4770 c3        1 MOL     -0.316701
    107 C35         1.1600   -1.5490   -2.9700 c         1 MOL      0.844959
    108 O17         0.8380   -2.7120   -3.2010 o         1 MOL     -0.729319
    109 O18         0.3740   -0.6310   -3.1170 o         1 MOL     -0.729319
    110 H47         1.6730   -1.3340   -0.0900 hn        1 MOL      0.144911
    111 H48         3.2210   -3.1310   -1.8630 h1        1 MOL      0.042370
    112 H49         3.3060   -1.3740   -3.2890 hc        1 MOL      0.070131
    113 H50         2.6270   -0.2290   -2.1500 hc        1 MOL      0.070131
    114 N11         5.5260   -1.8540   -1.5490 n         1 MOL     -0.685878
    115 C36         6.8690   -1.3740   -1.2110 c3        1 MOL      0.335120
    116 C37         7.0580    0.0420   -0.6750 c         1 MOL      0.252448
    117 O19         7.5430    0.2400    0.4490 o         1 MOL     -0.439770
    118 C38         7.8940   -1.8030   -2.2340 c3        1 MOL     -0.273235
    119 C39         9.3380   -1.3420   -1.8790 ca        1 MOL      0.031260
    120 C40         9.9340   -1.6360   -0.6270 ca        1 MOL     -0.053834
    121 C41        10.0700   -0.5730   -2.8340 ca        1 MOL     -0.053834
    122 C42        11.3230   -1.3500   -0.4370 ca        1 MOL     -0.242779
    123 C43        11.4430   -0.1270   -2.5470 ca        1 MOL     -0.242779
    124 C44        12.0750   -0.5480   -1.3280 ca        1 MOL     -0.003133
    125 H51         5.4360   -2.4410   -2.3680 hn        1 MOL      0.367267
    126 H52         7.1670   -1.9840   -0.3560 h1        1 MOL      0.085004
    127 H53         7.5850   -1.4490   -3.2170 hc        1 MOL      0.084367
    128 H54         7.9650   -2.8890   -2.3120 hc        1 MOL      0.084367
    129 H55         9.3540   -2.1180    0.1570 ha        1 MOL      0.095470
    130 H56         9.5810   -0.4230   -3.7860 ha        1 MOL      0.095470
    131 H57        11.6750   -1.5600    0.5620 ha        1 MOL      0.141754
    132 H58        12.0140    0.5240   -3.1980 ha        1 MOL      0.141754
    133 H59        13.0910   -0.2060   -1.1640 ha        1 MOL      0.091773
    134 N12         6.4320    1.0490   -1.3930 n         1 MOL     -0.049741
    135 C45         6.3480    2.4330   -0.8880 c3        1 MOL      0.141719
    136 C46         5.6660    2.6650    0.4410 c         1 MOL      0.092723
    137 O20         6.0790    3.5200    1.2610 o         1 MOL     -0.479667
    138 C47         5.5320    3.2140   -1.9320 c3        1 MOL      0.000356
    139 C48         5.7740    2.4680   -3.2190 c3        1 MOL     -0.104386
    140 C49         5.9390    1.0050   -2.7610 c3        1 MOL     -0.090992
    141 H60         7.3830    2.7860   -0.8040 h1        1 MOL      0.041808
    142 H61         4.4800    3.1240   -1.6900 hc        1 MOL      0.037133
    143 H62         5.9070    4.2320   -2.0800 hc        1 MOL      0.037133
    144 H63         4.9480    2.5140   -3.9390 hc        1 MOL      0.045740
    145 H64         6.7580    2.8260   -3.5140 hc        1 MOL      0.045740
    146 H65         4.9510    0.5450   -2.6840 h1        1 MOL      0.054839
    147 H66         6.6220    0.4570   -3.4100 h1        1 MOL      0.054839
    148 N13         4.6590    1.8620    0.7650 n         1 MOL      0.023897
    149 C50         3.8460    1.9290    1.9930 c3        1 MOL     -0.141127
    150 C51         4.6170    1.2910    3.1880 c         1 MOL      0.422561
    151 O21         4.6450    1.7840    4.3030 o         1 MOL     -0.543189
    152 C52         2.4870    1.3320    1.6180 c3        1 MOL     -0.005717
    153 C53         1.7930    2.0130    0.4920 c3        1 MOL     -0.150674
    154 C54         0.5740    1.3620   -0.1240 c         1 MOL      0.698706
    155 O22         0.4180    0.1230    0.0160 o         1 MOL     -0.732930
    156 O23        -0.1850    2.0290   -0.8920 o         1 MOL     -0.732930
    157 H67         4.5030    1.0850    0.1430 hn        1 MOL      0.171946
    158 H68         3.7300    2.9730    2.2850 h1        1 MOL      0.139266
    159 H69         1.7480    1.4970    2.4110 hc        1 MOL      0.028859
    160 H70         2.5620    0.2830    1.3620 hc        1 MOL      0.028859
    161 H71         2.5050    2.0370   -0.3320 hc        1 MOL      0.036435
    162 H72         1.5920    3.0400    0.8110 hc        1 MOL      0.036435
    163 N14         5.4090    0.2410    2.8760 n         1 MOL      0.095343
    164 C55         6.3690   -0.3750    3.7610 c3        1 MOL     -0.181178
    165 H73         5.8430   -0.9060    4.5540 h1        1 MOL      0.061354
    166 H74         6.9830   -1.0790    3.1990 h1        1 MOL      0.061354
    167 H75         7.0050    0.3940    4.2000 h1        1 MOL      0.061354
    168 H76         5.2690   -0.1290    1.9460 hn        1 MOL     -0.052332
    169 Ca1        -1.7190   -0.1830   -1.5200 Ca        1 MOL      1.727259
    170 O24        -2.5330   -0.8130   -3.9520 oh        1 MOL     -0.817473
    171 H77        -2.3200   -1.2810   -4.7640 ho        1 MOL      0.388954
    172 H78        -3.1870   -0.1670   -4.2250 ho        1 MOL      0.388954
    173 O25        -1.7180   -3.0230   -2.0970 oh        1 MOL     -0.817473
    174 H79        -0.7640   -3.0500   -2.0710 ho        1 MOL      0.388954
    175 H80        -1.9960   -3.7810   -1.5800 ho        1 MOL      0.388954
@<TRIPOS>BOND
     1    1    2 1   
     2    1    4 1   
     3    1    5 1   
     4    1    6 1   
     5    2    3 2   
     6    2    7 1   
     7    7    8 1   
     8    7   15 1   
     9    8    9 1   
    10    8   11 1   
    11    8   16 1   
    12    9   10 2   
    13    9   19 1   
    14   11   12 1   
    15   11   17 1   
    16   11   18 1   
    17   12   13 1   
    18   12   14 1   
    19   19   20 1   
    20   19   24 1   
    21   20   21 1   
    22   20   23 1   
    23   20   25 1   
    24   21   22 2   
    25   21   29 1   
    26   23   26 1   
    27   23   27 1   
    28   23   28 1   
    29   29   30 1   
    30   29   37 1   
    31   30   31 1   
    32   30   33 1   
    33   30   38 1   
    34   31   32 2   
    35   31   41 1   
    36   33   34 1   
    37   33   39 1   
    38   33   40 1   
    39   34   35 1   
    40   34   36 1   
    41   41   42 1   
    42   41   45 1   
    43   42   43 1   
    44   42   46 1   
    45   42   47 1   
    46   43   44 2   
    47   43   48 1   
    48   48   49 1   
    49   48   56 1   
    50   49   50 1   
    51   49   52 1   
    52   49   57 1   
    53   50   51 2   
    54   50   62 1   
    55   52   53 1   
    56   52   58 1   
    57   52   59 1   
    58   53   54 1   
    59   53   55 2   
    60   54   60 1   
    61   54   61 1   
    62   62   63 1   
    63   62   66 1   
    64   63   64 1   
    65   63   67 1   
    66   63   68 1   
    67   64   65 2   
    68   64   69 1   
    69   69   70 1   
    70   69   76 1   
    71   70   71 1   
    72   70   73 1   
    73   70   77 1   
    74   71   72 2   
    75   71   83 1   
    76   73   74 1   
    77   73   75 1   
    78   73   78 1   
    79   74   80 1   
    80   74   81 1   
    81   74   82 1   
    82   75   79 1   
    83   83   84 1   
    84   83   91 1   
    85   84   85 1   
    86   84   87 1   
    87   84   92 1   
    88   85   86 2   
    89   85  102 1   
    90   87   88 1   
    91   87   89 1   
    92   87   93 1   
    93   88   90 1   
    94   88   94 1   
    95   88   95 1   
    96   89   96 1   
    97   89   97 1   
    98   89   98 1   
    99   90   99 1   
   100   90  100 1   
   101   90  101 1   
   102  102  103 1   
   103  102  110 1   
   104  103  104 1   
   105  103  106 1   
   106  103  111 1   
   107  104  105 2   
   108  104  114 1   
   109  106  107 1   
   110  106  112 1   
   111  106  113 1   
   112  107  108 1   
   113  107  109 1   
   114  114  115 1   
   115  114  125 1   
   116  115  116 1   
   117  115  118 1   
   118  115  126 1   
   119  116  117 2   
   120  116  134 1   
   121  118  119 1   
   122  118  127 1   
   123  118  128 1   
   124  119  120 ar  
   125  119  121 ar  
   126  120  122 ar  
   127  120  129 1   
   128  121  123 ar  
   129  121  130 1   
   130  122  124 ar  
   131  122  131 1   
   132  123  124 ar  
   133  123  132 1   
   134  124  133 1   
   135  134  135 1   
   136  134  140 1   
   137  135  136 1   
   138  135  138 1   
   139  135  141 1   
   140  136  137 2   
   141  136  148 1   
   142  138  139 1   
   143  138  142 1   
   144  138  143 1   
   145  139  140 1   
   146  139  144 1   
   147  139  145 1   
   148  140  146 1   
   149  140  147 1   
   150  148  149 1   
   151  148  157 1   
   152  149  150 1   
   153  149  152 1   
   154  149  158 1   
   155  150  151 2   
   156  150  163 1   
   157  152  153 1   
   158  152  159 1   
   159  152  160 1   
   160  153  154 1   
   161  153  161 1   
   162  153  162 1   
   163  154  155 1   
   164  154  156 1   
   165  163  164 1   
   166  163  168 1   
   167  164  165 1   
   168  164  166 1   
   169  164  167 1   
   170  170  171 1   
   171  170  172 1   
   172  173  174 1   
   173  173  175 1   
@<TRIPOS>SUBSTRUCTURE
     1 MOL         1 TEMP              0 ****  ****    0 ROOT
