@<TRIPOS>MOLECULE
MOL
  172   171     1     0     0
SMALL
resp


@<TRIPOS>ATOM
      1 C1          0.1270    2.5320    6.0600 c3        1 MOL     -0.382681
      2 C2         -0.5310    2.6470    4.7200 c         1 MOL      0.724153
      3 O1          0.0330    3.3740    3.8560 o         1 MOL     -0.585712
      4 H1          1.1980    2.7050    5.9550 hc        1 MOL      0.095665
      5 H2         -0.2940    3.2750    6.7380 hc        1 MOL      0.095665
      6 H3         -0.0420    1.5340    6.4640 hc        1 MOL      0.095665
      7 N1         -1.6400    1.9750    4.4320 n         1 MOL     -0.693365
      8 C3         -2.2190    2.0310    3.1240 c3        1 MOL      0.386161
      9 C4         -2.5230    3.4040    2.6960 c         1 MOL      0.447787
     10 O2         -3.3710    4.0900    3.2740 o         1 MOL     -0.597287
     11 C5         -3.4480    1.1320    2.9750 c3        1 MOL     -0.449324
     12 C6         -4.2250    1.0520    1.6920 c         1 MOL      0.881827
     13 O3         -3.5500    1.1210    0.6700 o         1 MOL     -0.726512
     14 O4         -5.4080    0.6670    1.6220 o         1 MOL     -0.726512
     15 H4         -1.9660    1.2960    5.1040 hn        1 MOL      0.340050
     16 H5         -1.4600    1.6290    2.4410 h1        1 MOL      0.005123
     17 H6         -4.1570    1.5980    3.6540 hc        1 MOL      0.078492
     18 H7         -3.2420    0.1590    3.4180 hc        1 MOL      0.078492
     19 N2         -1.9420    3.7830    1.5810 n         1 MOL     -0.140533
     20 C7         -1.8850    5.1310    1.0150 c3        1 MOL      0.046101
     21 C8         -2.6050    5.2960   -0.3110 c         1 MOL      0.462452
     22 O5         -2.6020    6.4190   -0.8730 o         1 MOL     -0.565411
     23 C9         -0.3850    5.5920    1.0140 c3        1 MOL     -0.076912
     24 H8         -1.3010    3.1110    1.1630 hn        1 MOL      0.288695
     25 H9         -2.4640    5.7520    1.6920 h1        1 MOL      0.039709
     26 H10        -0.3770    6.5870    0.5640 hc        1 MOL      0.014914
     27 H11        -0.1050    5.6250    2.0760 hc        1 MOL      0.014914
     28 H12         0.3260    4.9550    0.4950 hc        1 MOL      0.014914
     29 N3         -3.1670    4.2230   -0.8980 n         1 MOL     -0.276240
     30 C10        -3.9300    4.2860   -2.1930 c3        1 MOL      0.026966
     31 C11        -5.3190    3.6480   -2.0110 c         1 MOL      0.428691
     32 O6         -6.1660    3.9080   -2.8280 o         1 MOL     -0.549225
     33 C12        -3.1420    3.7990   -3.4280 c3        1 MOL      0.075120
     34 C13        -2.5550    2.3690   -3.3910 c         1 MOL      0.617020
     35 O7         -1.8480    1.9870   -4.3690 o         1 MOL     -0.685046
     36 O8         -2.8830    1.6080   -2.4490 o         1 MOL     -0.685046
     37 H13        -2.9510    3.3100   -0.5230 hn        1 MOL      0.047977
     38 H14        -4.0420    5.3510   -2.4130 h1        1 MOL      0.058166
     39 H15        -2.3320    4.5080   -3.5630 hc        1 MOL     -0.012724
     40 H16        -3.6170    3.8860   -4.4060 hc        1 MOL     -0.012724
     41 N4         -5.5390    2.7430   -0.9870 n         1 MOL     -0.116501
     42 C14        -6.8680    2.3860   -0.4490 c3        1 MOL     -0.223506
     43 C15        -7.4250    0.8930   -0.6080 c         1 MOL      0.589470
     44 O9         -8.4760    0.4220   -0.1690 o         1 MOL     -0.616821
     45 H17        -4.7230    2.5150   -0.4460 hn        1 MOL      0.107954
     46 H18        -7.5270    3.0210   -1.0290 h1        1 MOL      0.097836
     47 H19        -6.9190    2.7010    0.6010 h1        1 MOL      0.097836
     48 N5         -6.6810    0.1450   -1.3750 n         1 MOL     -0.377156
     49 C16        -6.9600   -1.2560   -1.7720 c3        1 MOL      0.054982
     50 C17        -6.8400   -2.3290   -0.6880 c         1 MOL      0.431360
     51 O10        -7.0350   -3.5090   -0.9930 o         1 MOL     -0.575377
     52 C18        -6.1230   -1.5500   -2.9910 c3        1 MOL     -0.234328
     53 C19        -4.6910   -1.8880   -2.5990 c         1 MOL      0.613344
     54 N6         -4.0000   -2.7540   -3.3350 n         1 MOL     -0.678886
     55 O11        -4.1310   -1.3500   -1.6730 o         1 MOL     -0.609899
     56 H20        -5.8200    0.5590   -1.7040 hn        1 MOL      0.240050
     57 H21        -8.0000   -1.2940   -2.0980 h1        1 MOL      0.098545
     58 H22        -6.2450   -0.7180   -3.6840 hc        1 MOL      0.084541
     59 H23        -6.7020   -2.3500   -3.4440 hc        1 MOL      0.084541
     60 H24        -4.4940   -3.3670   -3.9720 hn        1 MOL      0.320231
     61 H25        -3.0420   -2.9610   -3.0730 hn        1 MOL      0.320231
     62 N7         -6.5580   -1.9530    0.5100 n         1 MOL     -0.135502
     63 C20        -6.4930   -2.9690    1.6170 c3        1 MOL     -0.242120
     64 C21        -5.2390   -3.8270    1.7800 c         1 MOL      0.547180
     65 O12        -5.2460   -4.7270    2.6230 o         1 MOL     -0.584961
     66 H26        -6.2760   -1.0050    0.7210 hn        1 MOL      0.274227
     67 H27        -7.3820   -3.5920    1.5380 h1        1 MOL      0.119660
     68 H28        -6.6040   -2.4460    2.5710 h1        1 MOL      0.119660
     69 N8         -4.2420   -3.6310    0.9440 n         1 MOL     -0.192098
     70 C22        -2.9410   -4.3600    0.9130 c3        1 MOL     -0.055796
     71 C23        -1.7690   -3.4210    0.9130 c         1 MOL      0.759662
     72 O13        -1.8890   -2.2340    0.6940 o         1 MOL     -0.634409
     73 C24        -2.8890   -5.3010   -0.2830 c3        1 MOL      0.405977
     74 C25        -4.0100   -6.3660   -0.2910 c3        1 MOL     -0.428256
     75 O14        -2.8220   -4.6120   -1.3970 oh        1 MOL     -0.512538
     76 H29        -4.3890   -2.8880    0.2790 hn        1 MOL      0.129275
     77 H30        -2.9280   -4.9430    1.8270 h1        1 MOL      0.058618
     78 H31        -1.9680   -5.8910   -0.2050 h1        1 MOL     -0.063391
     79 H32        -2.9680   -5.2280   -2.1270 ho        1 MOL      0.374728
     80 H33        -4.0620   -6.6940    0.7540 hc        1 MOL      0.104732
     81 H34        -4.9100   -5.8330   -0.6010 hc        1 MOL      0.104732
     82 H35        -3.7240   -7.1490   -0.9790 hc        1 MOL      0.104732
     83 N9         -0.5860   -3.9950    1.2620 n         1 MOL     -0.871183
     84 C26         0.6140   -3.1650    1.3100 c3        1 MOL      0.289938
     85 C27         1.3520   -3.0770   -0.0680 c         1 MOL      0.466104
     86 O15         1.4460   -4.0610   -0.7970 o         1 MOL     -0.582884
     87 C28         1.5910   -3.6560    2.4350 c3        1 MOL      0.246703
     88 C29         0.9710   -4.1200    3.7750 c3        1 MOL     -0.006758
     89 C30         2.4790   -2.4940    2.8470 c3        1 MOL     -0.517975
     90 C31         1.8600   -4.6020    4.9670 c3        1 MOL     -0.272792
     91 H36        -0.5360   -5.0060    1.3230 hn        1 MOL      0.369307
     92 H37         0.3770   -2.1250    1.5080 h1        1 MOL      0.096416
     93 H38         2.1430   -4.4640    1.9420 hc        1 MOL     -0.051777
     94 H39         0.3690   -5.0120    3.6360 hc        1 MOL      0.024528
     95 H40         0.3980   -3.2570    4.1320 hc        1 MOL      0.024528
     96 H41         2.9650   -2.0960    1.9540 hc        1 MOL      0.118551
     97 H42         1.8170   -1.7390    3.2640 hc        1 MOL      0.118551
     98 H43         3.2260   -2.7670    3.5800 hc        1 MOL      0.118551
     99 H44         1.2150   -4.9190    5.7820 hc        1 MOL      0.068072
    100 H45         2.6170   -5.3490    4.7370 hc        1 MOL      0.068072
    101 H46         2.4380   -3.7680    5.3710 hc        1 MOL      0.068072
    102 N10         1.8810   -1.9260   -0.4370 n         1 MOL     -0.268072
    103 C32         2.8280   -1.7910   -1.5440 c3        1 MOL      0.011404
    104 C33         4.1360   -1.3330   -0.9510 c         1 MOL      0.378836
    105 O16         4.1800   -0.7810    0.1400 o         1 MOL     -0.113189
    106 C34         2.4180   -0.7000   -2.4720 c3        1 MOL     -0.521448
    107 C35         1.0400   -0.9640   -3.0590 c         1 MOL      0.939662
    108 O17         0.7790   -1.8320   -3.9300 o         1 MOL     -0.734952
    109 O18         0.1560   -0.1820   -2.6930 o         1 MOL     -0.734952
    110 H47         1.5860   -1.1300    0.1210 hn        1 MOL      0.050587
    111 H48         3.0150   -2.7420   -2.0530 h1        1 MOL      0.102089
    112 H49         3.1040   -0.6200   -3.3120 hc        1 MOL      0.171289
    113 H50         2.4040    0.2080   -1.8750 hc        1 MOL      0.171289
    114 N11         5.2710   -1.5200   -1.6660 n         1 MOL     -0.565014
    115 C36         6.5380   -1.0650   -1.1980 c3        1 MOL      0.295717
    116 C37         6.6790    0.4750   -0.8900 c         1 MOL      0.369894
    117 O19         7.3020    0.7760    0.0590 o         1 MOL     -0.525454
    118 C38         7.5650   -1.6300   -2.2160 c3        1 MOL     -0.268552
    119 C39         8.9640   -1.5360   -1.7680 ca        1 MOL      0.156398
    120 C40         9.7880   -0.4330   -2.0700 ca        1 MOL     -0.193470
    121 C41         9.5760   -2.6200   -1.1290 ca        1 MOL     -0.193470
    122 C42        11.1240   -0.4910   -1.7020 ca        1 MOL     -0.075846
    123 C43        10.8510   -2.5900   -0.6320 ca        1 MOL     -0.075846
    124 C44        11.7290   -1.4700   -0.9030 ca        1 MOL     -0.169487
    125 H51         5.1940   -1.8240   -2.6210 hn        1 MOL      0.313265
    126 H52         6.7590   -1.5730   -0.2560 h1        1 MOL      0.038208
    127 H53         7.4610   -1.0870   -3.1570 hc        1 MOL      0.078691
    128 H54         7.3560   -2.6800   -2.4070 hc        1 MOL      0.078691
    129 H55         9.3860    0.4360   -2.5680 ha        1 MOL      0.123844
    130 H56         8.9750   -3.4870   -0.9010 ha        1 MOL      0.123844
    131 H57        11.8090    0.2510   -2.0670 ha        1 MOL      0.092080
    132 H58        11.1790   -3.3840    0.0260 ha        1 MOL      0.092080
    133 H59        12.7200   -1.3420   -0.5010 ha        1 MOL      0.133315
    134 N12         6.0610    1.4460   -1.5140 n         1 MOL      0.021504
    135 C45         5.9960    2.8240   -1.0480 c3        1 MOL      0.102962
    136 C46         5.3680    3.0100    0.3410 c         1 MOL      0.270702
    137 O20         5.4620    4.0530    0.9990 o         1 MOL     -0.511451
    138 C47         5.2780    3.5800   -2.1690 c3        1 MOL     -0.291416
    139 C48         5.5980    2.7540   -3.4460 c3        1 MOL      0.187902
    140 C49         5.6300    1.3510   -2.9210 c3        1 MOL     -0.167215
    141 H60         6.9970    3.2400   -0.9120 h1        1 MOL      0.049630
    142 H61         4.2010    3.5110   -2.0420 hc        1 MOL      0.111591
    143 H62         5.6510    4.6010   -2.2850 hc        1 MOL      0.111591
    144 H63         4.9250    2.8260   -4.3080 hc        1 MOL     -0.021648
    145 H64         6.6070    3.0330   -3.7590 hc        1 MOL     -0.021648
    146 H65         4.5940    1.0260   -3.0330 h1        1 MOL      0.048790
    147 H66         6.3710    0.7320   -3.4130 h1        1 MOL      0.048790
    148 N13         4.5840    1.9920    0.8050 n         1 MOL      0.122438
    149 C50         3.7830    2.0210    2.0610 c3        1 MOL     -0.129255
    150 C51         4.5510    1.1950    3.0660 c         1 MOL      0.439718
    151 O21         4.6790    1.5590    4.2500 o         1 MOL     -0.559616
    152 C52         2.4490    1.3230    1.8520 c3        1 MOL      0.014550
    153 C53         1.5890    2.1110    0.8600 c3        1 MOL      0.207568
    154 C54         0.3450    1.3470    0.3260 c         1 MOL      0.447960
    155 O22        -0.5990    1.9670   -0.2560 o         1 MOL     -0.665172
    156 O23         0.1880    0.1530    0.5540 o         1 MOL     -0.665172
    157 H67         4.5410    1.1450    0.2640 hn        1 MOL     -0.148354
    158 H68         3.7510    3.0680    2.3550 h1        1 MOL      0.115453
    159 H69         1.9410    1.0920    2.7820 hc        1 MOL      0.022007
    160 H70         2.5650    0.3040    1.4840 hc        1 MOL      0.022007
    161 H71         2.2270    2.5030    0.0720 hc        1 MOL     -0.040663
    162 H72         1.2730    2.9120    1.5240 hc        1 MOL     -0.040663
    163 N14         5.1020    0.0630    2.6520 n         1 MOL     -0.119667
    164 C55         6.0120   -0.8090    3.4560 c3        1 MOL     -0.107940
    165 H73         7.0390   -0.6640    3.1240 h1        1 MOL      0.056151
    166 H74         5.9310   -0.5450    4.5110 h1        1 MOL      0.056151
    167 H75         5.7300   -1.8530    3.3190 h1        1 MOL      0.056151
    168 H76         4.8640   -0.3060    1.7420 hn        1 MOL      0.043851
    169 Ca1        -1.8980   -0.1280   -1.0180 Ca        1 MOL      1.752019
    170 O24        -1.2810   -2.4400   -2.2300 oh        1 MOL     -0.748904
    171 H77        -1.1770   -3.2830   -1.8000 ho        1 MOL      0.355908
    172 H78        -0.5670   -2.4050   -2.8750 ho        1 MOL      0.355908
@<TRIPOS>BOND
     1    1    2 1   
     2    1    4 1   
     3    1    5 1   
     4    1    6 1   
     5    2    3 2   
     6    2    7 1   
     7    7    8 1   
     8    7   15 1   
     9    8    9 1   
    10    8   11 1   
    11    8   16 1   
    12    9   10 2   
    13    9   19 1   
    14   11   12 1   
    15   11   17 1   
    16   11   18 1   
    17   12   13 1   
    18   12   14 1   
    19   19   20 1   
    20   19   24 1   
    21   20   21 1   
    22   20   23 1   
    23   20   25 1   
    24   21   22 2   
    25   21   29 1   
    26   23   26 1   
    27   23   27 1   
    28   23   28 1   
    29   29   30 1   
    30   29   37 1   
    31   30   31 1   
    32   30   33 1   
    33   30   38 1   
    34   31   32 2   
    35   31   41 1   
    36   33   34 1   
    37   33   39 1   
    38   33   40 1   
    39   34   35 1   
    40   34   36 1   
    41   41   42 1   
    42   41   45 1   
    43   42   43 1   
    44   42   46 1   
    45   42   47 1   
    46   43   44 2   
    47   43   48 1   
    48   48   49 1   
    49   48   56 1   
    50   49   50 1   
    51   49   52 1   
    52   49   57 1   
    53   50   51 2   
    54   50   62 1   
    55   52   53 1   
    56   52   58 1   
    57   52   59 1   
    58   53   54 1   
    59   53   55 2   
    60   54   60 1   
    61   54   61 1   
    62   62   63 1   
    63   62   66 1   
    64   63   64 1   
    65   63   67 1   
    66   63   68 1   
    67   64   65 2   
    68   64   69 1   
    69   69   70 1   
    70   69   76 1   
    71   70   71 1   
    72   70   73 1   
    73   70   77 1   
    74   71   72 2   
    75   71   83 1   
    76   73   74 1   
    77   73   75 1   
    78   73   78 1   
    79   74   80 1   
    80   74   81 1   
    81   74   82 1   
    82   75   79 1   
    83   83   84 1   
    84   83   91 1   
    85   84   85 1   
    86   84   87 1   
    87   84   92 1   
    88   85   86 2   
    89   85  102 1   
    90   87   88 1   
    91   87   89 1   
    92   87   93 1   
    93   88   90 1   
    94   88   94 1   
    95   88   95 1   
    96   89   96 1   
    97   89   97 1   
    98   89   98 1   
    99   90   99 1   
   100   90  100 1   
   101   90  101 1   
   102  102  103 1   
   103  102  110 1   
   104  103  104 1   
   105  103  106 1   
   106  103  111 1   
   107  104  105 2   
   108  104  114 1   
   109  106  107 1   
   110  106  112 1   
   111  106  113 1   
   112  107  108 1   
   113  107  109 1   
   114  114  115 1   
   115  114  125 1   
   116  115  116 1   
   117  115  118 1   
   118  115  126 1   
   119  116  117 2   
   120  116  134 1   
   121  118  119 1   
   122  118  127 1   
   123  118  128 1   
   124  119  120 ar  
   125  119  121 ar  
   126  120  122 ar  
   127  120  129 1   
   128  121  123 ar  
   129  121  130 1   
   130  122  124 ar  
   131  122  131 1   
   132  123  124 ar  
   133  123  132 1   
   134  124  133 1   
   135  134  135 1   
   136  134  140 1   
   137  135  136 1   
   138  135  138 1   
   139  135  141 1   
   140  136  137 2   
   141  136  148 1   
   142  138  139 1   
   143  138  142 1   
   144  138  143 1   
   145  139  140 1   
   146  139  144 1   
   147  139  145 1   
   148  140  146 1   
   149  140  147 1   
   150  148  149 1   
   151  148  157 1   
   152  149  150 1   
   153  149  152 1   
   154  149  158 1   
   155  150  151 2   
   156  150  163 1   
   157  152  153 1   
   158  152  159 1   
   159  152  160 1   
   160  153  154 1   
   161  153  161 1   
   162  153  162 1   
   163  154  155 1   
   164  154  156 1   
   165  163  164 1   
   166  163  168 1   
   167  164  165 1   
   168  164  166 1   
   169  164  167 1   
   170  170  171 1   
   171  170  172 1   
@<TRIPOS>SUBSTRUCTURE
     1 MOL         1 TEMP              0 ****  ****    0 ROOT
