@<TRIPOS>MOLECULE
MOL
  182   178     1     0     0
SMALL
resp


@<TRIPOS>ATOM
      1 C1         -2.2420   -3.4190    4.9540 c3        1 MOL     -0.425301
      2 C2         -1.6830   -2.9690    3.6340 c         1 MOL      0.751183
      3 O1         -2.3770   -2.7870    2.6450 o         1 MOL     -0.546075
      4 H1         -1.4260   -3.7370    5.6030 hc        1 MOL      0.101966
      5 H2         -2.7770   -2.5930    5.4220 hc        1 MOL      0.101966
      6 H3         -2.9260   -4.2520    4.7950 hc        1 MOL      0.101966
      7 N1         -0.3340   -2.7660    3.6520 n         1 MOL     -0.632924
      8 C3          0.4140   -2.4280    2.4300 c3        1 MOL      0.062241
      9 C4          0.4860   -3.6970    1.6020 c         1 MOL      0.422856
     10 O2          1.0670   -4.7130    2.0890 o         1 MOL     -0.553541
     11 C5          1.8160   -1.8620    2.8300 c3        1 MOL     -0.040321
     12 C6          2.6550   -1.4490    1.6420 c         1 MOL      0.695576
     13 O3          3.9020   -1.3660    1.7590 o         1 MOL     -0.716755
     14 O4          2.1360   -1.3620    0.5270 o         1 MOL     -0.716755
     15 H4          0.2510   -2.8330    4.4760 hn        1 MOL      0.351918
     16 H5         -0.1930   -1.6760    1.9350 h1        1 MOL      0.058492
     17 H6          2.3510   -2.5170    3.5080 hc        1 MOL      0.024365
     18 H7          1.6640   -0.9750    3.4430 hc        1 MOL      0.024365
     19 N2         -0.2660   -3.7670    0.4600 n         1 MOL     -0.120002
     20 C7         -0.4520   -5.0710   -0.1720 c3        1 MOL      0.204781
     21 C8          0.7160   -5.4890   -1.1000 c         1 MOL      0.235184
     22 O5          0.9620   -6.6640   -1.2140 o         1 MOL     -0.523998
     23 C9         -1.8250   -5.2840   -0.8910 c3        1 MOL     -0.073973
     24 C10        -3.1350   -5.0670   -0.0350 c3        1 MOL      0.105872
     25 C11        -3.0060   -5.7410    1.3660 c3        1 MOL     -0.334328
     26 C12        -4.3360   -5.5460    2.1680 c3        1 MOL      0.196128
     27 N3         -4.5790   -6.6430    3.1360 n4        1 MOL     -0.355165
     28 H8         -0.5280   -2.9360   -0.0500 hn        1 MOL      0.080430
     29 H9         -0.5210   -5.8760    0.5570 h1        1 MOL      0.013223
     30 H10        -1.7950   -6.3090   -1.2520 hc        1 MOL      0.022106
     31 H11        -1.8300   -4.5820   -1.7200 hc        1 MOL      0.022106
     32 H12        -3.9370   -5.5040   -0.6290 hc        1 MOL      0.011631
     33 H13        -3.3870   -4.0100    0.0470 hc        1 MOL      0.011631
     34 H14        -2.1350   -5.2920    1.8380 hc        1 MOL      0.100845
     35 H15        -2.7920   -6.7750    1.1460 hc        1 MOL      0.100845
     36 H16        -5.2080   -5.4550    1.5150 hx        1 MOL      0.053838
     37 H17        -4.2710   -4.5760    2.6780 hx        1 MOL      0.053838
     38 H18        -3.9520   -6.6580    3.9210 hn        1 MOL      0.312587
     39 H19        -5.5620   -6.7340    3.3510 hn        1 MOL      0.312587
     40 H20        -4.3050   -7.5270    2.7410 hn        1 MOL      0.312587
     41 N4          1.3810   -4.5300   -1.7580 n         1 MOL     -0.068858
     42 C13         2.6050   -4.7720   -2.5940 c3        1 MOL      0.068916
     43 C14         3.9340   -4.6520   -1.9400 c         1 MOL      0.338230
     44 O6          4.9840   -4.8510   -2.5580 o         1 MOL     -0.511209
     45 C15         2.4770   -3.9340   -3.8380 c3        1 MOL     -0.273482
     46 C16         2.6590   -2.4840   -3.5710 c         1 MOL      0.897968
     47 O7          2.5350   -1.9990   -2.4120 o         1 MOL     -0.764123
     48 O8          2.8440   -1.6550   -4.4440 o         1 MOL     -0.764123
     49 H21         1.0820   -3.5780   -1.6020 hn        1 MOL      0.118366
     50 H22         2.5130   -5.7880   -2.9810 h1        1 MOL      0.098479
     51 H23         1.4040   -4.0270   -4.0560 hc        1 MOL      0.060543
     52 H24         3.1960   -4.2480   -4.5930 hc        1 MOL      0.060543
     53 N5          3.9590   -4.2730   -0.6910 n         1 MOL     -0.157411
     54 C17         5.2360   -4.2740    0.1350 c3        1 MOL     -0.225412
     55 C18         6.1160   -3.0600   -0.1210 c         1 MOL      0.571866
     56 O9          7.3320   -3.2250    0.0350 o         1 MOL     -0.577108
     57 H25         3.1230   -4.2770   -0.1220 hn        1 MOL      0.217483
     58 H26         5.7820   -5.1990   -0.0910 h1        1 MOL      0.122024
     59 H27         5.0120   -4.2780    1.1960 h1        1 MOL      0.122024
     60 N6          5.6130   -1.9250   -0.5700 n         1 MOL     -0.300116
     61 C19         6.4540   -0.8570   -1.0310 c3        1 MOL      0.054136
     62 C20         6.8550    0.1490    0.0260 c         1 MOL      0.255818
     63 O10         7.8380    0.8780   -0.1500 o         1 MOL     -0.509545
     64 C21         5.8820   -0.1480   -2.3160 c3        1 MOL     -0.188672
     65 C22         4.9490    0.9300   -2.0010 c         1 MOL      0.614289
     66 N7          5.1240    2.1300   -2.5240 n         1 MOL     -0.621331
     67 O11         3.9690    0.6640   -1.2980 o         1 MOL     -0.681333
     68 H28         4.6420   -1.8360   -0.8250 hn        1 MOL      0.324340
     69 H29         7.3570   -1.2130   -1.5300 h1        1 MOL      0.116128
     70 H30         5.3650   -0.9400   -2.8530 hc        1 MOL      0.070367
     71 H31         6.7320    0.2540   -2.8700 hc        1 MOL      0.070367
     72 H32         5.9780    2.2420   -3.0450 hn        1 MOL      0.323075
     73 H33         4.5340    2.9250   -2.3560 hn        1 MOL      0.323075
     74 N8          6.1260    0.2540    1.1420 n         1 MOL      0.032348
     75 C23         6.2170    1.2130    2.2950 c3        1 MOL     -0.316909
     76 C24         5.0960    2.1940    2.4630 c         1 MOL      0.653130
     77 O12         5.2130    3.2070    3.1580 o         1 MOL     -0.558562
     78 H34         5.3650   -0.4090    1.1670 hn        1 MOL      0.103594
     79 H35         7.1560    1.7640    2.2280 h1        1 MOL      0.140106
     80 H36         6.3560    0.6170    3.1950 h1        1 MOL      0.140106
     81 N9          3.9760    1.9750    1.8110 n         1 MOL     -0.557813
     82 C25         2.9010    2.9500    1.6900 c3        1 MOL      0.123947
     83 C26         1.5140    2.2410    1.4540 c         1 MOL      0.637591
     84 O13         1.2570    1.2480    0.7300 o         1 MOL     -0.650114
     85 C27         3.1610    3.9580    0.5290 c3        1 MOL      0.179722
     86 C28         4.3580    4.9250    0.5210 ca        1 MOL      0.105038
     87 C29         5.6660    4.5120    0.2410 ca        1 MOL     -0.286459
     88 C30         4.1190    6.3420    0.6570 ca        1 MOL     -0.286459
     89 C31         6.7410    5.4550    0.2230 ca        1 MOL     -0.126659
     90 C32         5.1920    7.2450    0.6030 ca        1 MOL     -0.126659
     91 C33         6.5560    6.8310    0.4500 ca        1 MOL      0.199035
     92 O14         7.5840    7.5870    0.6550 oh        1 MOL     -0.385066
     93 H37         3.9140    1.1080    1.2980 hn        1 MOL      0.333090
     94 H38         2.9240    3.5820    2.5790 h1        1 MOL      0.043995
     95 H39         2.2930    4.6140    0.5000 hc        1 MOL     -0.040520
     96 H40         3.0950    3.4500   -0.4250 hc        1 MOL     -0.040520
     97 H41         5.8370    3.4510    0.0920 ha        1 MOL      0.142567
     98 H42         3.0850    6.6450    0.7290 ha        1 MOL      0.142567
     99 H43         7.7760    5.1570    0.0930 ha        1 MOL      0.109428
    100 H44         4.9020    8.2910    0.6600 ha        1 MOL      0.109428
    101 H45         7.2430    8.4020    1.0220 ho        1 MOL      0.339081
    102 N10         0.4520    2.7590    2.1260 n         1 MOL     -0.602005
    103 C34        -0.9650    2.3850    1.9490 c3        1 MOL      0.050987
    104 C35        -1.7960    3.4100    1.2070 c         1 MOL      0.601637
    105 O15        -1.8140    4.6030    1.5230 o         1 MOL     -0.577883
    106 C36        -1.5850    2.0750    3.3110 c3        1 MOL      0.053721
    107 C37        -1.0210    0.9020    3.9480 c3        1 MOL      0.187792
    108 C38        -3.1290    1.9710    3.2660 c3        1 MOL     -0.024235
    109 C39        -1.2920    0.8790    5.4980 c3        1 MOL     -0.348314
    110 H46         0.6360    3.4460    2.8420 hn        1 MOL      0.295739
    111 H47        -0.9560    1.5620    1.2320 h1        1 MOL      0.102108
    112 H48        -1.3820    2.9010    3.9950 hc        1 MOL      0.014962
    113 H49         0.0600    1.0440    3.8880 hc        1 MOL     -0.018648
    114 H50        -1.2650   -0.0250    3.4360 hc        1 MOL     -0.018648
    115 H51        -3.4980    1.0930    2.7440 hc        1 MOL     -0.006879
    116 H52        -3.6110    1.8850    4.2470 hc        1 MOL     -0.006879
    117 H53        -3.4560    2.9280    2.8700 hc        1 MOL     -0.006879
    118 H54        -2.3760    0.8150    5.5670 hc        1 MOL      0.081311
    119 H55        -0.6930    0.1510    6.0390 hc        1 MOL      0.081311
    120 H56        -1.0750    1.8460    5.9620 hc        1 MOL      0.081311
    121 N11        -2.4410    2.9370    0.1500 n         1 MOL     -0.349362
    122 C40        -3.4110    3.7700   -0.6780 c3        1 MOL      0.124824
    123 C41        -4.9080    3.6980   -0.3010 c         1 MOL      0.440259
    124 O16        -5.2120    2.9900    0.6940 o         1 MOL     -0.396708
    125 C42        -3.1570    3.4240   -2.1350 c3        1 MOL     -0.077838
    126 O17        -3.7880    2.2170   -2.5250 oh        1 MOL     -0.465699
    127 H57        -2.2970    1.9720   -0.0950 hn        1 MOL      0.217095
    128 H58        -3.0860    4.8080   -0.5450 h1        1 MOL      0.054448
    129 H59        -2.0830    3.4350   -2.3540 h1        1 MOL      0.051478
    130 H60        -3.6380    4.1800   -2.7430 h1        1 MOL      0.051478
    131 H61        -3.3650    2.0570   -3.3760 ho        1 MOL      0.394264
    132 N12        -5.7920    4.5040   -0.9590 n         1 MOL     -0.520127
    133 C43        -7.2020    4.4610   -0.6260 c3        1 MOL      0.286341
    134 C44        -7.6710    3.0750   -1.1380 c         1 MOL      0.332596
    135 O18        -8.2950    2.4170   -0.2670 o         1 MOL     -0.494242
    136 C45        -7.9020    5.7070   -1.1620 c3        1 MOL     -0.416076
    137 H62        -5.4530    5.1280   -1.6760 hn        1 MOL      0.317074
    138 H63        -7.2470    4.4750    0.4650 h1        1 MOL      0.076991
    139 H64        -7.6550    5.8720   -2.2110 hc        1 MOL      0.117823
    140 H65        -8.9470    5.4810   -0.9570 hc        1 MOL      0.117823
    141 H66        -7.5930    6.5770   -0.5850 hc        1 MOL      0.117823
    142 N13        -7.3240    2.5460   -2.3430 n         1 MOL     -0.231067
    143 C46        -7.9300    1.2630   -2.7110 c3        1 MOL      0.060990
    144 C47        -7.2130    0.0300   -2.1390 c         1 MOL      0.331626
    145 O19        -7.8700   -1.0110   -1.8630 o         1 MOL     -0.501870
    146 C48        -7.9900    1.2130   -4.2290 c3        1 MOL     -0.208762
    147 H67        -6.8850    3.1360   -3.0310 hn        1 MOL      0.233045
    148 H68        -8.9410    1.3420   -2.3070 h1        1 MOL      0.120721
    149 H69        -8.4740    0.2920   -4.5660 hc        1 MOL      0.060249
    150 H70        -8.5550    2.0910   -4.5430 hc        1 MOL      0.060249
    151 H71        -6.9840    1.2680   -4.6390 hc        1 MOL      0.060249
    152 N14        -6.0470    0.1940   -1.5100 n         1 MOL     -0.001561
    153 C49        -5.4450   -0.7760   -0.5840 c3        1 MOL      0.010493
    154 C50        -6.1400   -0.8530    0.7230 c         1 MOL      0.390755
    155 O20        -6.6220   -1.9440    1.1160 o         1 MOL     -0.558432
    156 C51        -3.9400   -0.4850   -0.3550 c3        1 MOL      0.080198
    157 C52        -3.0210   -1.1350   -1.4060 c3        1 MOL      0.028298
    158 C53        -1.5070   -0.8120   -1.2040 c         1 MOL      0.783331
    159 O21        -0.6600   -1.6900   -1.3810 o         1 MOL     -0.736161
    160 O22        -1.1450    0.3550   -0.9680 o         1 MOL     -0.736161
    161 H72        -5.6330    1.1060   -1.6260 hn        1 MOL     -0.047064
    162 H73        -5.5730   -1.7370   -1.0910 h1        1 MOL      0.058553
    163 H74        -3.6140   -0.9680    0.5740 hc        1 MOL     -0.049086
    164 H75        -3.7150    0.5830   -0.3590 hc        1 MOL     -0.049086
    165 H76        -3.3900   -0.8720   -2.3960 hc        1 MOL     -0.035578
    166 H77        -3.1660   -2.2070   -1.4190 hc        1 MOL     -0.035578
    167 N15        -6.4340    0.2670    1.3980 n         1 MOL     -0.015799
    168 C54        -7.3090    0.1960    2.6420 c3        1 MOL     -0.282194
    169 H78        -7.6200    1.2010    2.9250 h1        1 MOL      0.112403
    170 H79        -8.1900   -0.4110    2.4330 h1        1 MOL      0.112403
    171 H80        -6.7430   -0.2520    3.4590 h1        1 MOL      0.112403
    172 H81        -6.1290    1.1640    1.0460 hn        1 MOL      0.101960
    173 Ca1         1.4340    0.0460   -1.5080 Ca        1 MOL      1.780368
    174 O23        -0.0330    0.2760   -3.7900 oh        1 MOL     -0.804701
    175 H82        -0.8600    0.5090   -4.2240 ho        1 MOL      0.388518
    176 H83         0.6260    0.3270   -4.4850 ho        1 MOL      0.388518
    177 O24         0.7860    2.6980   -2.2520 oh        1 MOL     -0.804701
    178 H84         0.2010    2.4950   -2.9850 ho        1 MOL      0.388518
    179 H85         0.8310    3.6540   -2.2300 ho        1 MOL      0.388518
    180 O25         2.7080    0.9790   -3.9150 oh        1 MOL     -0.804701
    181 H86         3.1090    1.4680   -4.6310 ho        1 MOL      0.388518
    182 H87         2.9140    0.0630   -4.1110 ho        1 MOL      0.388518
@<TRIPOS>BOND
     1    1    2 1   
     2    1    4 1   
     3    1    5 1   
     4    1    6 1   
     5    2    3 2   
     6    2    7 1   
     7    7    8 1   
     8    7   15 1   
     9    8    9 1   
    10    8   11 1   
    11    8   16 1   
    12    9   10 2   
    13    9   19 1   
    14   11   12 1   
    15   11   17 1   
    16   11   18 1   
    17   12   13 1   
    18   12   14 1   
    19   19   20 1   
    20   19   28 1   
    21   20   21 1   
    22   20   23 1   
    23   20   29 1   
    24   21   22 2   
    25   21   41 1   
    26   23   24 1   
    27   23   30 1   
    28   23   31 1   
    29   24   25 1   
    30   24   32 1   
    31   24   33 1   
    32   25   26 1   
    33   25   34 1   
    34   25   35 1   
    35   26   27 1   
    36   26   36 1   
    37   26   37 1   
    38   27   38 1   
    39   27   39 1   
    40   27   40 1   
    41   41   42 1   
    42   41   49 1   
    43   42   43 1   
    44   42   45 1   
    45   42   50 1   
    46   43   44 2   
    47   43   53 1   
    48   45   46 1   
    49   45   51 1   
    50   45   52 1   
    51   46   47 1   
    52   46   48 1   
    53   53   54 1   
    54   53   57 1   
    55   54   55 1   
    56   54   58 1   
    57   54   59 1   
    58   55   56 2   
    59   55   60 1   
    60   60   61 1   
    61   60   68 1   
    62   61   62 1   
    63   61   64 1   
    64   61   69 1   
    65   62   63 2   
    66   62   74 1   
    67   64   65 1   
    68   64   70 1   
    69   64   71 1   
    70   65   66 1   
    71   65   67 2   
    72   66   72 1   
    73   66   73 1   
    74   74   75 1   
    75   74   78 1   
    76   75   76 1   
    77   75   79 1   
    78   75   80 1   
    79   76   77 2   
    80   76   81 1   
    81   81   82 1   
    82   81   93 1   
    83   82   83 1   
    84   82   85 1   
    85   82   94 1   
    86   83   84 2   
    87   83  102 1   
    88   85   86 1   
    89   85   95 1   
    90   85   96 1   
    91   86   87 ar  
    92   86   88 ar  
    93   87   89 ar  
    94   87   97 1   
    95   88   90 ar  
    96   88   98 1   
    97   89   91 ar  
    98   89   99 1   
    99   90   91 ar  
   100   90  100 1   
   101   91   92 1   
   102   92  101 1   
   103  102  103 1   
   104  102  110 1   
   105  103  104 1   
   106  103  106 1   
   107  103  111 1   
   108  104  105 2   
   109  104  121 1   
   110  106  107 1   
   111  106  108 1   
   112  106  112 1   
   113  107  109 1   
   114  107  113 1   
   115  107  114 1   
   116  108  115 1   
   117  108  116 1   
   118  108  117 1   
   119  109  118 1   
   120  109  119 1   
   121  109  120 1   
   122  121  122 1   
   123  121  127 1   
   124  122  123 1   
   125  122  125 1   
   126  122  128 1   
   127  123  124 2   
   128  123  132 1   
   129  125  126 1   
   130  125  129 1   
   131  125  130 1   
   132  126  131 1   
   133  132  133 1   
   134  132  137 1   
   135  133  134 1   
   136  133  136 1   
   137  133  138 1   
   138  134  135 2   
   139  134  142 1   
   140  136  139 1   
   141  136  140 1   
   142  136  141 1   
   143  142  143 1   
   144  142  147 1   
   145  143  144 1   
   146  143  146 1   
   147  143  148 1   
   148  144  145 2   
   149  144  152 1   
   150  146  149 1   
   151  146  150 1   
   152  146  151 1   
   153  152  153 1   
   154  152  161 1   
   155  153  154 1   
   156  153  156 1   
   157  153  162 1   
   158  154  155 2   
   159  154  167 1   
   160  156  157 1   
   161  156  163 1   
   162  156  164 1   
   163  157  158 1   
   164  157  165 1   
   165  157  166 1   
   166  158  159 1   
   167  158  160 1   
   168  167  168 1   
   169  167  172 1   
   170  168  169 1   
   171  168  170 1   
   172  168  171 1   
   173  174  175 1   
   174  174  176 1   
   175  177  178 1   
   176  177  179 1   
   177  180  181 1   
   178  180  182 1   
@<TRIPOS>SUBSTRUCTURE
     1 MOL         1 TEMP              0 ****  ****    0 ROOT
