@<TRIPOS>MOLECULE
MOL
  175   173     1     0     0
SMALL
resp


@<TRIPOS>ATOM
      1 C1          0.4430    3.7580    5.7070 c3        1 MOL     -0.328119
      2 C2         -0.1800    3.6320    4.3330 c         1 MOL      0.758020
      3 O1          0.5250    3.9530    3.3530 o         1 MOL     -0.562487
      4 H1         -0.2700    4.2220    6.3880 hc        1 MOL      0.076624
      5 H2          0.7080    2.7680    6.0790 hc        1 MOL      0.076624
      6 H3          1.3400    4.3750    5.6450 hc        1 MOL      0.076624
      7 N1         -1.4380    3.2950    4.2290 n         1 MOL     -0.715946
      8 C3         -2.1020    3.0980    2.8790 c3        1 MOL      0.256048
      9 C4         -2.2590    4.4770    2.1020 c         1 MOL      0.647745
     10 O2         -2.5680    5.5170    2.6640 o         1 MOL     -0.606961
     11 C5         -3.5010    2.4310    2.9590 c3        1 MOL     -0.426053
     12 C6         -4.1380    2.3870    1.5620 c         1 MOL      0.726899
     13 O3         -5.1840    3.0120    1.3020 o         1 MOL     -0.677133
     14 O4         -3.5440    1.8440    0.6110 o         1 MOL     -0.677133
     15 H4         -2.0080    3.1510    5.0500 hn        1 MOL      0.353401
     16 H5         -1.5440    2.4210    2.2210 h1        1 MOL     -0.011165
     17 H6         -4.1730    3.0600    3.5380 hc        1 MOL      0.086581
     18 H7         -3.3930    1.4570    3.4310 hc        1 MOL      0.086581
     19 N2         -1.9860    4.4290    0.8370 n         1 MOL     -0.540110
     20 C7         -1.9610    5.4930   -0.2060 c3        1 MOL      0.372682
     21 C8         -2.9050    5.2240   -1.4160 c         1 MOL      0.470811
     22 O5         -2.7550    5.9590   -2.3790 o         1 MOL     -0.560516
     23 C9         -0.4940    5.7960   -0.5300 c3        1 MOL     -0.290786
     24 H8         -1.8250    3.5080    0.4650 hn        1 MOL      0.319467
     25 H9         -2.3970    6.4000    0.2110 h1        1 MOL     -0.015788
     26 H10        -0.4240    6.6550   -1.1860 hc        1 MOL      0.066885
     27 H11         0.0140    6.1620    0.3720 hc        1 MOL      0.066885
     28 H12        -0.0270    4.9940   -1.0900 hc        1 MOL      0.066885
     29 N3         -3.7560    4.1560   -1.4100 n         1 MOL     -0.366383
     30 C10        -4.4440    3.6660   -2.5820 c3        1 MOL      0.035618
     31 C11        -5.7700    2.8330   -2.4630 c         1 MOL      0.503866
     32 O6         -6.4770    2.6890   -3.4560 o         1 MOL     -0.570935
     33 C12        -3.4230    2.8870   -3.4640 c3        1 MOL     -0.121532
     34 C13        -2.8220    1.6310   -2.7880 c         1 MOL      0.747537
     35 O7         -1.6470    1.2850   -2.7680 o         1 MOL     -0.712064
     36 O8         -3.6570    0.8090   -2.2590 o         1 MOL     -0.712064
     37 H13        -3.8200    3.6130   -0.5660 hn        1 MOL      0.146785
     38 H14        -4.7350    4.5540   -3.1350 h1        1 MOL      0.074325
     39 H15        -2.5800    3.5630   -3.6020 hc        1 MOL      0.030656
     40 H16        -3.9050    2.6590   -4.4150 hc        1 MOL      0.030656
     41 N4         -6.1500    2.2870   -1.3050 n         1 MOL     -0.339444
     42 C14        -7.3920    1.5560   -1.1260 c3        1 MOL     -0.076569
     43 C15        -7.2660   -0.0180   -1.2170 c         1 MOL      0.510974
     44 O9         -8.1430   -0.7650   -0.7720 o         1 MOL     -0.637827
     45 H17        -5.4600    2.2570   -0.5650 hn        1 MOL      0.308530
     46 H18        -8.0860    1.9480   -1.8650 h1        1 MOL      0.075265
     47 H19        -7.8720    1.7120   -0.1580 h1        1 MOL      0.075265
     48 N5         -6.1600   -0.5310   -1.7540 n         1 MOL     -0.225208
     49 C16        -6.1260   -1.8820   -2.2220 c3        1 MOL      0.073242
     50 C17        -6.1880   -3.0750   -1.2270 c         1 MOL      0.376716
     51 O10        -6.1730   -4.2370   -1.5810 o         1 MOL     -0.495245
     52 C18        -4.9320   -1.9710   -3.2180 c3        1 MOL     -0.390739
     53 C19        -3.5680   -2.0910   -2.5290 c         1 MOL      0.644688
     54 N6         -2.6450   -2.3860   -3.4150 n         1 MOL     -0.584960
     55 O11        -3.4100   -2.0040   -1.3080 o         1 MOL     -0.517736
     56 H20        -5.3470    0.0630   -1.7710 hn        1 MOL      0.131915
     57 H21        -7.0080   -1.9510   -2.8530 h1        1 MOL      0.091139
     58 H22        -4.8210   -1.0390   -3.7720 hc        1 MOL      0.105108
     59 H23        -5.1070   -2.8930   -3.7740 hc        1 MOL      0.105108
     60 H24        -2.8670   -2.3650   -4.3930 hn        1 MOL      0.308783
     61 H25        -1.6790   -2.5190   -3.1720 hn        1 MOL      0.308783
     62 N7         -6.3200   -2.7820    0.0560 n         1 MOL     -0.162076
     63 C20        -6.3470   -3.8010    1.1400 c3        1 MOL     -0.211080
     64 C21        -5.0560   -4.5370    1.4890 c         1 MOL      0.529722
     65 O12        -5.0540   -5.6520    1.9410 o         1 MOL     -0.548040
     66 H26        -6.5940   -1.8470    0.2920 hn        1 MOL      0.274485
     67 H27        -7.0170   -4.5820    0.7890 h1        1 MOL      0.090453
     68 H28        -6.7400   -3.3610    2.0580 h1        1 MOL      0.090453
     69 N8         -3.9120   -3.8620    1.1450 n         1 MOL     -0.137772
     70 C22        -2.5800   -4.5040    1.3780 c3        1 MOL     -0.245817
     71 C23        -1.5230   -3.4230    1.5290 c         1 MOL      0.321447
     72 O13        -1.5340   -2.2840    0.9800 o         1 MOL     -0.260782
     73 C24        -2.1610   -5.5100    0.3310 c3        1 MOL      0.665259
     74 C25        -2.8320   -6.8460    0.4080 c3        1 MOL     -0.656336
     75 O14        -2.2730   -4.9640   -0.9810 oh        1 MOL     -0.594524
     76 H29        -4.0010   -2.9390    0.7400 hn        1 MOL      0.052025
     77 H30        -2.6420   -4.9690    2.3600 h1        1 MOL      0.084419
     78 H31        -1.1040   -5.6650    0.5130 h1        1 MOL     -0.069810
     79 H32        -2.0450   -4.0420   -0.8140 ho        1 MOL      0.309308
     80 H33        -2.9620   -7.2170    1.4210 hc        1 MOL      0.162898
     81 H34        -3.8310   -6.7420   -0.0150 hc        1 MOL      0.162898
     82 H35        -2.0900   -7.4420   -0.1210 hc        1 MOL      0.162898
     83 N9         -0.4470   -3.6910    2.2560 n         1 MOL     -0.236913
     84 C26         0.7120   -2.7270    2.2970 c3        1 MOL     -0.077470
     85 C27         1.5500   -3.0490    1.0280 c         1 MOL      0.328358
     86 O15         2.0050   -4.1950    0.8520 o         1 MOL     -0.567006
     87 C28         1.6260   -2.8290    3.5290 c3        1 MOL      0.268967
     88 C29         0.7490   -2.4240    4.7080 c3        1 MOL      0.184803
     89 C30         2.8440   -1.9160    3.3990 c3        1 MOL     -0.146847
     90 C31         1.2550   -3.1220    5.9870 c3        1 MOL     -0.452206
     91 H36        -0.3130   -4.5390    2.8020 hn        1 MOL      0.214278
     92 H37         0.2900   -1.7400    2.1110 h1        1 MOL     -0.021964
     93 H38         2.0340   -3.8480    3.6130 hc        1 MOL     -0.027729
     94 H39        -0.3040   -2.6190    4.5270 hc        1 MOL     -0.028280
     95 H40         0.7370   -1.3770    5.0010 hc        1 MOL     -0.028280
     96 H41         2.4500   -0.9120    3.1810 hc        1 MOL      0.013175
     97 H42         3.4590   -1.9910    4.2960 hc        1 MOL      0.013175
     98 H43         3.4470   -2.2200    2.5390 hc        1 MOL      0.013175
     99 H44         2.1480   -2.5660    6.2980 hc        1 MOL      0.096223
    100 H45         0.5490   -2.8970    6.7870 hc        1 MOL      0.096223
    101 H46         1.2620   -4.1840    5.7760 hc        1 MOL      0.096223
    102 N10         1.7860   -2.0520    0.1620 n         1 MOL     -0.000234
    103 C32         2.6780   -2.1200   -1.0410 c3        1 MOL      0.053550
    104 C33         4.0120   -1.4200   -0.7670 c         1 MOL      0.289424
    105 O16         4.3440   -0.7230    0.2180 o         1 MOL     -0.299202
    106 C34         1.9020   -1.5570   -2.2180 c3        1 MOL     -0.191494
    107 C35         0.4370   -1.8960   -2.3770 c         1 MOL      0.619398
    108 O17        -0.0300   -2.4570   -3.4220 o         1 MOL     -0.644903
    109 O18        -0.3340   -1.5240   -1.4410 o         1 MOL     -0.644903
    110 H47         1.1980   -1.2350    0.2320 hn        1 MOL      0.109664
    111 H48         2.8940   -3.1540   -1.3180 h1        1 MOL      0.061300
    112 H49         2.4180   -1.7310   -3.1710 hc        1 MOL      0.066629
    113 H50         1.8700   -0.4720   -2.2890 hc        1 MOL      0.066629
    114 N11         4.8830   -1.5550   -1.7190 n         1 MOL     -0.378854
    115 C36         6.2800   -1.2000   -1.5270 c3        1 MOL      0.239638
    116 C37         6.4960    0.3400   -1.4700 c         1 MOL      0.232054
    117 O19         7.2580    0.7280   -0.6140 o         1 MOL     -0.456142
    118 C38         7.1980   -2.0050   -2.5050 c3        1 MOL     -0.342070
    119 C39         8.6050   -1.9300   -1.9380 ca        1 MOL      0.251887
    120 C40         9.4150   -0.9100   -2.4330 ca        1 MOL     -0.256811
    121 C41         9.2160   -2.9230   -1.1930 ca        1 MOL     -0.256811
    122 C42        10.7480   -0.8380   -2.0720 ca        1 MOL     -0.038649
    123 C43        10.6210   -2.8550   -0.8450 ca        1 MOL     -0.038649
    124 C44        11.4540   -1.8250   -1.3140 ca        1 MOL     -0.204022
    125 H51         4.7430   -2.0250   -2.6090 hn        1 MOL      0.269963
    126 H52         6.5550   -1.5540   -0.5320 h1        1 MOL      0.070926
    127 H53         7.1550   -1.4850   -3.4610 hc        1 MOL      0.098002
    128 H54         6.9660   -3.0690   -2.5280 hc        1 MOL      0.098002
    129 H55         8.9980   -0.0360   -2.9040 ha        1 MOL      0.137471
    130 H56         8.6610   -3.7350   -0.7460 ha        1 MOL      0.137471
    131 H57        11.3920   -0.0350   -2.4230 ha        1 MOL      0.088558
    132 H58        10.9560   -3.5980   -0.1300 ha        1 MOL      0.088558
    133 H59        12.4810   -1.7580   -0.9830 ha        1 MOL      0.136752
    134 N12         5.7020    1.1350   -2.1800 n         1 MOL     -0.003321
    135 C45         5.7590    2.5560   -1.9700 c3        1 MOL      0.077431
    136 C46         5.3020    2.8880   -0.5660 c         1 MOL      0.210741
    137 O20         5.6270    3.9360   -0.0890 o         1 MOL     -0.493244
    138 C47         4.8140    3.0600   -3.0800 c3        1 MOL     -0.229338
    139 C48         4.7930    2.0210   -4.1340 c3        1 MOL     -0.072665
    140 C49         4.7900    0.7580   -3.2660 c3        1 MOL      0.017315
    141 H60         6.7740    2.9430   -2.0500 h1        1 MOL      0.074139
    142 H61         3.7730    3.1710   -2.7670 hc        1 MOL      0.103157
    143 H62         5.2770    3.9880   -3.4120 hc        1 MOL      0.103157
    144 H63         3.9030    2.1090   -4.7580 hc        1 MOL      0.045122
    145 H64         5.7470    1.9450   -4.6630 hc        1 MOL      0.045122
    146 H65         3.8140    0.5010   -2.8710 h1        1 MOL      0.028532
    147 H66         5.2330   -0.0380   -3.8670 h1        1 MOL      0.028532
    148 N13         4.5630    2.0090    0.1030 n         1 MOL      0.069248
    149 C50         4.0790    2.2260    1.4620 c3        1 MOL     -0.090059
    150 C51         5.0510    1.7140    2.5600 c         1 MOL      0.432994
    151 O21         5.2620    2.3990    3.5440 o         1 MOL     -0.576050
    152 C52         2.6750    1.7150    1.6920 c3        1 MOL      0.027304
    153 C53         1.6540    2.3350    0.7570 c3        1 MOL      0.027912
    154 C54         0.3640    1.6220    0.5810 c         1 MOL      0.552885
    155 O22        -0.5680    2.1080   -0.1430 o         1 MOL     -0.638187
    156 O23         0.1730    0.4980    1.1170 o         1 MOL     -0.638187
    157 H67         4.3670    1.0740   -0.2380 hn        1 MOL      0.053736
    158 H68         3.9830    3.2940    1.6790 h1        1 MOL      0.091942
    159 H69         2.3480    1.8840    2.7140 hc        1 MOL     -0.003309
    160 H70         2.6820    0.6440    1.5030 hc        1 MOL     -0.003309
    161 H71         2.0680    2.3290   -0.2460 hc        1 MOL      0.013635
    162 H72         1.5030    3.3660    1.0870 hc        1 MOL      0.013635
    163 N14         5.6900    0.6560    2.2400 n         1 MOL     -0.052648
    164 C55         6.8640    0.0980    2.9450 c3        1 MOL     -0.147612
    165 H73         7.7420    0.1720    2.3030 h1        1 MOL      0.064614
    166 H74         7.0380    0.6590    3.8630 h1        1 MOL      0.064614
    167 H75         6.6800   -0.9490    3.1880 h1        1 MOL      0.064614
    168 H76         5.3860    0.1610    1.4140 hn        1 MOL      0.053168
    169 Ca1        -2.0580   -0.0660   -0.3170 Ca        1 MOL      1.615438
    170 O24        -1.5470   -0.1250    2.8650 oh        1 MOL     -0.830255
    171 H77        -1.5320    0.3540    3.6920 ho        1 MOL      0.394393
    172 H78        -0.7220    0.1050    2.4310 ho        1 MOL      0.394393
    173 O25        -3.8070   -0.8050    1.4900 oh        1 MOL     -0.830255
    174 H79        -4.6130   -0.5780    1.9730 ho        1 MOL      0.394393
    175 H80        -3.1170   -0.7620    2.1490 ho        1 MOL      0.394393
@<TRIPOS>BOND
     1    1    2 1   
     2    1    4 1   
     3    1    5 1   
     4    1    6 1   
     5    2    3 2   
     6    2    7 1   
     7    7    8 1   
     8    7   15 1   
     9    8    9 1   
    10    8   11 1   
    11    8   16 1   
    12    9   10 2   
    13    9   19 1   
    14   11   12 1   
    15   11   17 1   
    16   11   18 1   
    17   12   13 1   
    18   12   14 1   
    19   19   20 1   
    20   19   24 1   
    21   20   21 1   
    22   20   23 1   
    23   20   25 1   
    24   21   22 2   
    25   21   29 1   
    26   23   26 1   
    27   23   27 1   
    28   23   28 1   
    29   29   30 1   
    30   29   37 1   
    31   30   31 1   
    32   30   33 1   
    33   30   38 1   
    34   31   32 2   
    35   31   41 1   
    36   33   34 1   
    37   33   39 1   
    38   33   40 1   
    39   34   35 1   
    40   34   36 1   
    41   41   42 1   
    42   41   45 1   
    43   42   43 1   
    44   42   46 1   
    45   42   47 1   
    46   43   44 2   
    47   43   48 1   
    48   48   49 1   
    49   48   56 1   
    50   49   50 1   
    51   49   52 1   
    52   49   57 1   
    53   50   51 2   
    54   50   62 1   
    55   52   53 1   
    56   52   58 1   
    57   52   59 1   
    58   53   54 1   
    59   53   55 2   
    60   54   60 1   
    61   54   61 1   
    62   62   63 1   
    63   62   66 1   
    64   63   64 1   
    65   63   67 1   
    66   63   68 1   
    67   64   65 2   
    68   64   69 1   
    69   69   70 1   
    70   69   76 1   
    71   70   71 1   
    72   70   73 1   
    73   70   77 1   
    74   71   72 2   
    75   71   83 1   
    76   73   74 1   
    77   73   75 1   
    78   73   78 1   
    79   74   80 1   
    80   74   81 1   
    81   74   82 1   
    82   75   79 1   
    83   83   84 1   
    84   83   91 1   
    85   84   85 1   
    86   84   87 1   
    87   84   92 1   
    88   85   86 2   
    89   85  102 1   
    90   87   88 1   
    91   87   89 1   
    92   87   93 1   
    93   88   90 1   
    94   88   94 1   
    95   88   95 1   
    96   89   96 1   
    97   89   97 1   
    98   89   98 1   
    99   90   99 1   
   100   90  100 1   
   101   90  101 1   
   102  102  103 1   
   103  102  110 1   
   104  103  104 1   
   105  103  106 1   
   106  103  111 1   
   107  104  105 2   
   108  104  114 1   
   109  106  107 1   
   110  106  112 1   
   111  106  113 1   
   112  107  108 1   
   113  107  109 1   
   114  114  115 1   
   115  114  125 1   
   116  115  116 1   
   117  115  118 1   
   118  115  126 1   
   119  116  117 2   
   120  116  134 1   
   121  118  119 1   
   122  118  127 1   
   123  118  128 1   
   124  119  120 ar  
   125  119  121 ar  
   126  120  122 ar  
   127  120  129 1   
   128  121  123 ar  
   129  121  130 1   
   130  122  124 ar  
   131  122  131 1   
   132  123  124 ar  
   133  123  132 1   
   134  124  133 1   
   135  134  135 1   
   136  134  140 1   
   137  135  136 1   
   138  135  138 1   
   139  135  141 1   
   140  136  137 2   
   141  136  148 1   
   142  138  139 1   
   143  138  142 1   
   144  138  143 1   
   145  139  140 1   
   146  139  144 1   
   147  139  145 1   
   148  140  146 1   
   149  140  147 1   
   150  148  149 1   
   151  148  157 1   
   152  149  150 1   
   153  149  152 1   
   154  149  158 1   
   155  150  151 2   
   156  150  163 1   
   157  152  153 1   
   158  152  159 1   
   159  152  160 1   
   160  153  154 1   
   161  153  161 1   
   162  153  162 1   
   163  154  155 1   
   164  154  156 1   
   165  163  164 1   
   166  163  168 1   
   167  164  165 1   
   168  164  166 1   
   169  164  167 1   
   170  170  171 1   
   171  170  172 1   
   172  173  174 1   
   173  173  175 1   
@<TRIPOS>SUBSTRUCTURE
     1 MOL         1 TEMP              0 ****  ****    0 ROOT
