@<TRIPOS>MOLECULE
MOL
  179   176     1     0     0
SMALL
resp


@<TRIPOS>ATOM
      1 C1         -1.4040   -2.3710    6.3650 c3        1 MOL     -0.215407
      2 C2         -1.0710   -1.9740    4.9600 c         1 MOL      0.773508
      3 O1         -2.0230   -1.9660    4.1220 o         1 MOL     -0.624753
      4 H1         -0.6330   -3.0420    6.7450 hc        1 MOL      0.053608
      5 H2         -1.4530   -1.4810    6.9920 hc        1 MOL      0.053608
      6 H3         -2.3680   -2.8800    6.3800 hc        1 MOL      0.053608
      7 N1          0.1980   -1.7240    4.6010 n         1 MOL     -0.606398
      8 C3          0.6320   -1.8570    3.2180 c3        1 MOL     -0.047258
      9 C4          0.4350   -3.3370    2.7700 c         1 MOL      0.618749
     10 O2          0.8410   -4.3100    3.4310 o         1 MOL     -0.534705
     11 C5          2.0190   -1.3290    3.1160 c3        1 MOL     -0.001627
     12 C6          2.5750   -1.2000    1.6710 c         1 MOL      0.595870
     13 O3          1.7800   -1.5390    0.7340 o         1 MOL     -0.645436
     14 O4          3.8310   -1.0240    1.5540 o         1 MOL     -0.645436
     15 H4          0.8600   -1.7440    5.3530 hn        1 MOL      0.333575
     16 H5         -0.0200   -1.3060    2.5370 h1        1 MOL      0.070623
     17 H6          2.6710   -1.9030    3.7620 hc        1 MOL      0.021284
     18 H7          2.0280   -0.3020    3.4630 hc        1 MOL      0.021284
     19 N2         -0.1530   -3.5470    1.5470 n         1 MOL     -0.432223
     20 C7         -0.6700   -4.8390    1.0550 c3        1 MOL     -0.051201
     21 C8          0.3060   -5.6310    0.1930 c         1 MOL      0.442293
     22 O5          0.3850   -6.8470    0.4320 o         1 MOL     -0.564017
     23 C9         -1.8300   -4.5250    0.1300 c3        1 MOL      0.112355
     24 C10        -2.6360   -5.7470   -0.2290 c3        1 MOL     -0.050632
     25 C11        -3.9770   -5.3050   -0.7820 c3        1 MOL     -0.151627
     26 C12        -4.7920   -6.5330   -1.2130 c3        1 MOL      0.050904
     27 N3         -4.5690   -6.8330   -2.6420 n4        1 MOL     -0.407861
     28 H8         -0.4320   -2.6990    1.0770 hn        1 MOL      0.275490
     29 H9         -0.9700   -5.4280    1.9220 h1        1 MOL      0.120663
     30 H10        -1.4140   -4.1480   -0.8070 hc        1 MOL      0.026723
     31 H11        -2.4900   -3.7690    0.5630 hc        1 MOL      0.026723
     32 H12        -2.7480   -6.2660    0.7270 hc        1 MOL      0.019244
     33 H13        -2.1680   -6.3390   -1.0080 hc        1 MOL      0.019244
     34 H14        -3.9570   -4.5970   -1.6020 hc        1 MOL      0.108321
     35 H15        -4.5240   -4.9550    0.0960 hc        1 MOL      0.108321
     36 H16        -5.8430   -6.2760   -1.0570 hx        1 MOL      0.089760
     37 H17        -4.6620   -7.4530   -0.6380 hx        1 MOL      0.089760
     38 H18        -5.1060   -7.6090   -2.9930 hn        1 MOL      0.336497
     39 H19        -4.7350   -6.0690   -3.2930 hn        1 MOL      0.336497
     40 H20        -3.6030   -7.1180   -2.7320 hn        1 MOL      0.336497
     41 N4          1.1670   -4.9430   -0.5850 n         1 MOL     -0.073426
     42 C13         2.2080   -5.3610   -1.5020 c3        1 MOL     -0.123915
     43 C14         3.5800   -4.9100   -0.9730 c         1 MOL      0.624432
     44 O6          4.5600   -5.3270   -1.5470 o         1 MOL     -0.532640
     45 C15         1.8090   -5.0390   -2.9100 c3        1 MOL     -0.058975
     46 C16         1.4780   -3.6180   -3.1880 c         1 MOL      0.752879
     47 O7          1.9010   -2.7850   -2.3290 o         1 MOL     -0.736382
     48 O8          0.7570   -3.2620   -4.1740 o         1 MOL     -0.736382
     49 H21         1.0880   -3.9460   -0.4480 hn        1 MOL     -0.026825
     50 H22         2.3420   -6.4490   -1.4620 h1        1 MOL      0.102309
     51 H23         0.8690   -5.5460   -3.1370 hc        1 MOL      0.017571
     52 H24         2.5250   -5.4040   -3.6480 hc        1 MOL      0.017571
     53 N5          3.7060   -4.1670    0.1720 n         1 MOL     -0.419285
     54 C17         4.9310   -4.1210    0.9790 c3        1 MOL     -0.124041
     55 C18         6.0770   -3.3120    0.4110 c         1 MOL      0.561030
     56 O9          7.1810   -3.7300    0.5050 o         1 MOL     -0.571190
     57 H25         2.9300   -3.6290    0.5170 hn        1 MOL      0.321777
     58 H26         5.3650   -5.1120    1.0890 h1        1 MOL      0.096788
     59 H27         4.7280   -3.7830    1.9970 h1        1 MOL      0.096788
     60 N6          5.7740   -2.2220   -0.2600 n         1 MOL     -0.256844
     61 C19         6.7430   -1.3960   -1.0830 c3        1 MOL      0.148854
     62 C20         7.1040   -0.0470   -0.3140 c         1 MOL      0.289181
     63 O10         8.1470    0.4850   -0.5280 o         1 MOL     -0.529299
     64 C21         6.0720   -1.1080   -2.4540 c3        1 MOL     -0.204454
     65 C22         4.9450   -0.0710   -2.4040 c         1 MOL      0.667414
     66 N7          5.2420    1.0370   -2.9450 n         1 MOL     -0.828170
     67 O11         3.8440   -0.3090   -1.9900 o         1 MOL     -0.606459
     68 H28         4.8270   -1.8920   -0.1840 hn        1 MOL      0.087925
     69 H29         7.6650   -1.9530   -1.2540 h1        1 MOL      0.090169
     70 H30         5.6660   -2.0750   -2.7480 hc        1 MOL      0.075652
     71 H31         6.9050   -0.8960   -3.1280 hc        1 MOL      0.075652
     72 H32         6.1970    1.1830   -3.2400 hn        1 MOL      0.397870
     73 H33         4.4620    1.5950   -3.2680 hn        1 MOL      0.397870
     74 N8          6.2020    0.4390    0.4560 n         1 MOL     -0.017343
     75 C23         6.4290    1.5990    1.3980 c3        1 MOL     -0.167824
     76 C24         5.2380    2.6260    1.5710 c         1 MOL      0.527219
     77 O12         5.5250    3.6610    2.1870 o         1 MOL     -0.526718
     78 H34         5.4510   -0.1960    0.7020 hn        1 MOL      0.140807
     79 H35         7.3260    2.1320    1.0810 h1        1 MOL      0.114891
     80 H36         6.6000    1.2450    2.4210 h1        1 MOL      0.114891
     81 N9          4.1650    2.4220    0.8080 n         1 MOL     -0.487388
     82 C25         3.1490    3.4770    0.6530 c3        1 MOL      0.330634
     83 C26         1.7760    2.7370    0.5570 c         1 MOL      0.590093
     84 O13         1.5970    1.6190    0.0430 o         1 MOL     -0.632373
     85 C27         3.4190    4.2630   -0.6900 c3        1 MOL     -0.021367
     86 C28         4.6040    5.2220   -0.6500 ca        1 MOL     -0.010253
     87 C29         5.8520    4.7570   -1.0110 ca        1 MOL     -0.134297
     88 C30         4.4470    6.5690   -0.3230 ca        1 MOL     -0.134297
     89 C31         6.9620    5.5560   -0.9080 ca        1 MOL     -0.277365
     90 C32         5.5630    7.3890   -0.2700 ca        1 MOL     -0.277365
     91 C33         6.8860    6.8980   -0.4620 ca        1 MOL      0.402378
     92 O14         7.9620    7.6720   -0.2970 oh        1 MOL     -0.467068
     93 H37         4.1100    1.5230    0.3610 hn        1 MOL      0.223555
     94 H38         3.0130    4.1530    1.5030 h1        1 MOL      0.008919
     95 H39         2.4890    4.8100   -0.8960 hc        1 MOL     -0.008186
     96 H40         3.4740    3.5180   -1.4810 hc        1 MOL     -0.008186
     97 H41         6.0200    3.7160   -1.2250 ha        1 MOL      0.122152
     98 H42         3.4800    7.0030   -0.1240 ha        1 MOL      0.122152
     99 H43         7.9130    5.1640   -1.2370 ha        1 MOL      0.140365
    100 H44         5.3920    8.4300   -0.0280 ha        1 MOL      0.140365
    101 H45         7.7160    8.5980   -0.3630 ho        1 MOL      0.349407
    102 N10         0.7660    3.3010    1.1320 n         1 MOL     -0.640037
    103 C34        -0.6260    2.8410    1.1690 c3        1 MOL     -0.020593
    104 C35        -1.6000    3.7000    0.3620 c         1 MOL      0.774613
    105 O15        -1.5920    4.9340    0.4980 o         1 MOL     -0.606812
    106 C36        -1.0750    2.8010    2.6610 c3        1 MOL      0.053421
    107 C37        -0.0600    1.9960    3.5260 c3        1 MOL      0.068689
    108 C38        -2.3350    1.9810    2.6890 c3        1 MOL     -0.132760
    109 C39        -0.5170    1.7050    4.9680 c3        1 MOL     -0.067819
    110 H46         1.0050    4.1630    1.5940 hn        1 MOL      0.321956
    111 H47        -0.7210    1.8040    0.8430 h1        1 MOL      0.108975
    112 H48        -1.3790    3.7850    3.0290 hc        1 MOL      0.025270
    113 H49         0.9150    2.4800    3.5290 hc        1 MOL      0.001249
    114 H50         0.0270    1.0540    2.9700 hc        1 MOL      0.001249
    115 H51        -2.2130    0.9200    2.4800 hc        1 MOL      0.017271
    116 H52        -2.8360    2.0900    3.6560 hc        1 MOL      0.017271
    117 H53        -3.0260    2.4080    1.9660 hc        1 MOL      0.017271
    118 H54        -1.2270    0.9130    5.1790 hc        1 MOL      0.009759
    119 H55         0.3670    1.2940    5.4720 hc        1 MOL      0.009759
    120 H56        -0.8160    2.6510    5.4090 hc        1 MOL      0.009759
    121 N11        -2.3980    3.0640   -0.5240 n         1 MOL     -0.627702
    122 C40        -3.4790    3.6880   -1.3810 c3        1 MOL      0.226696
    123 C41        -4.8280    3.6800   -0.7090 c         1 MOL      0.338349
    124 O16        -5.0510    2.9720    0.2950 o         1 MOL     -0.311870
    125 C42        -3.4410    2.9780   -2.6850 c3        1 MOL     -0.233960
    126 O17        -4.2820    1.8740   -2.5390 oh        1 MOL     -0.387615
    127 H57        -2.4070    2.0530   -0.4890 hn        1 MOL      0.365670
    128 H58        -3.1860    4.6930   -1.6930 h1        1 MOL      0.052195
    129 H59        -2.4590    2.6650   -3.0210 h1        1 MOL      0.124207
    130 H60        -3.8830    3.6400   -3.4250 h1        1 MOL      0.124207
    131 H61        -3.9870    1.1660   -3.1290 ho        1 MOL      0.378209
    132 N12        -5.7610    4.5660   -1.1440 n         1 MOL     -0.453299
    133 C43        -7.1660    4.5800   -0.6040 c3        1 MOL      0.230961
    134 C44        -7.8430    3.1660   -0.8770 c         1 MOL      0.356226
    135 O18        -8.7350    2.7180   -0.0940 o         1 MOL     -0.497209
    136 C45        -7.9550    5.8180   -1.1020 c3        1 MOL     -0.455008
    137 H62        -5.4810    5.3390   -1.7340 hn        1 MOL      0.304842
    138 H63        -7.1310    4.7000    0.4810 h1        1 MOL      0.083433
    139 H64        -7.7100    6.6590   -0.4550 hc        1 MOL      0.137192
    140 H65        -7.5600    6.0010   -2.1060 hc        1 MOL      0.137192
    141 H66        -9.0350    5.6910   -1.0660 hc        1 MOL      0.137192
    142 N13        -7.4310    2.3650   -1.8880 n         1 MOL     -0.313479
    143 C46        -7.9610    0.9810   -2.0800 c3        1 MOL      0.138589
    144 C47        -7.2870    0.0600   -1.0320 c         1 MOL      0.325196
    145 O19        -7.9190   -0.8330   -0.5290 o         1 MOL     -0.510228
    146 C48        -7.6150    0.5260   -3.4810 c3        1 MOL     -0.202407
    147 H67        -6.7130    2.7270   -2.5040 hn        1 MOL      0.225261
    148 H68        -9.0480    0.9130   -2.0530 h1        1 MOL      0.111717
    149 H69        -6.5860    0.7520   -3.7650 hc        1 MOL      0.054124
    150 H70        -7.7070   -0.5610   -3.5570 hc        1 MOL      0.054124
    151 H71        -8.2260    1.0440   -4.2160 hc        1 MOL      0.054124
    152 N14        -6.0310    0.1910   -0.5510 n         1 MOL      0.107733
    153 C49        -5.3110   -0.5550    0.4670 c3        1 MOL     -0.098556
    154 C50        -5.8420   -0.1980    1.8360 c         1 MOL      0.414159
    155 O20        -5.9900   -1.0360    2.7560 o         1 MOL     -0.539318
    156 C51        -3.7530   -0.4620    0.2900 c3        1 MOL     -0.052823
    157 C52        -3.2700   -1.1170   -1.0170 c3        1 MOL      0.177743
    158 C53        -1.7740   -0.8200   -1.1120 c         1 MOL      0.593278
    159 O21        -0.9820   -1.7590   -1.3180 o         1 MOL     -0.738797
    160 O22        -1.2500    0.3080   -0.8780 o         1 MOL     -0.738797
    161 H72        -5.4670    0.9740   -0.8500 hn        1 MOL     -0.175438
    162 H73        -5.5530   -1.5910    0.2650 h1        1 MOL      0.046051
    163 H74        -3.1010   -0.8660    1.0670 hc        1 MOL      0.109492
    164 H75        -3.5570    0.6010    0.2180 hc        1 MOL      0.109492
    165 H76        -3.8000   -0.6340   -1.8370 hc        1 MOL     -0.109241
    166 H77        -3.3840   -2.1900   -0.9180 hc        1 MOL     -0.109241
    167 N15        -6.3220    1.0310    1.9710 n         1 MOL     -0.038490
    168 C54        -7.0190    1.5060    3.2110 c3        1 MOL     -0.327601
    169 H78        -7.5950    2.4030    2.9820 h1        1 MOL      0.128443
    170 H79        -7.6890    0.7270    3.5730 h1        1 MOL      0.128443
    171 H80        -6.2800    1.7360    3.9780 h1        1 MOL      0.128443
    172 H81        -6.0990    1.6680    1.2250 hn        1 MOL      0.080273
    173 Ca1         1.2070   -0.4760   -1.5520 Ca        1 MOL      1.745054
    174 O23         0.3930   -0.4940   -4.1230 oh        1 MOL     -0.821376
    175 H82         0.1980   -1.4220   -4.0050 ho        1 MOL      0.399841
    176 H83        -0.1060   -0.2390   -4.8980 ho        1 MOL      0.399841
    177 O24         1.4780    1.8410   -2.7600 oh        1 MOL     -0.821376
    178 H84         0.7520    2.4610   -2.7040 ho        1 MOL      0.399841
    179 H85         2.2190    2.3780   -3.0530 ho        1 MOL      0.399841
@<TRIPOS>BOND
     1    1    2 1   
     2    1    4 1   
     3    1    5 1   
     4    1    6 1   
     5    2    3 2   
     6    2    7 1   
     7    7    8 1   
     8    7   15 1   
     9    8    9 1   
    10    8   11 1   
    11    8   16 1   
    12    9   10 2   
    13    9   19 1   
    14   11   12 1   
    15   11   17 1   
    16   11   18 1   
    17   12   13 1   
    18   12   14 1   
    19   19   20 1   
    20   19   28 1   
    21   20   21 1   
    22   20   23 1   
    23   20   29 1   
    24   21   22 2   
    25   21   41 1   
    26   23   24 1   
    27   23   30 1   
    28   23   31 1   
    29   24   25 1   
    30   24   32 1   
    31   24   33 1   
    32   25   26 1   
    33   25   34 1   
    34   25   35 1   
    35   26   27 1   
    36   26   36 1   
    37   26   37 1   
    38   27   38 1   
    39   27   39 1   
    40   27   40 1   
    41   41   42 1   
    42   41   49 1   
    43   42   43 1   
    44   42   45 1   
    45   42   50 1   
    46   43   44 2   
    47   43   53 1   
    48   45   46 1   
    49   45   51 1   
    50   45   52 1   
    51   46   47 1   
    52   46   48 1   
    53   53   54 1   
    54   53   57 1   
    55   54   55 1   
    56   54   58 1   
    57   54   59 1   
    58   55   56 2   
    59   55   60 1   
    60   60   61 1   
    61   60   68 1   
    62   61   62 1   
    63   61   64 1   
    64   61   69 1   
    65   62   63 2   
    66   62   74 1   
    67   64   65 1   
    68   64   70 1   
    69   64   71 1   
    70   65   66 1   
    71   65   67 2   
    72   66   72 1   
    73   66   73 1   
    74   74   75 1   
    75   74   78 1   
    76   75   76 1   
    77   75   79 1   
    78   75   80 1   
    79   76   77 2   
    80   76   81 1   
    81   81   82 1   
    82   81   93 1   
    83   82   83 1   
    84   82   85 1   
    85   82   94 1   
    86   83   84 2   
    87   83  102 1   
    88   85   86 1   
    89   85   95 1   
    90   85   96 1   
    91   86   87 ar  
    92   86   88 ar  
    93   87   89 ar  
    94   87   97 1   
    95   88   90 ar  
    96   88   98 1   
    97   89   91 ar  
    98   89   99 1   
    99   90   91 ar  
   100   90  100 1   
   101   91   92 1   
   102   92  101 1   
   103  102  103 1   
   104  102  110 1   
   105  103  104 1   
   106  103  106 1   
   107  103  111 1   
   108  104  105 2   
   109  104  121 1   
   110  106  107 1   
   111  106  108 1   
   112  106  112 1   
   113  107  109 1   
   114  107  113 1   
   115  107  114 1   
   116  108  115 1   
   117  108  116 1   
   118  108  117 1   
   119  109  118 1   
   120  109  119 1   
   121  109  120 1   
   122  121  122 1   
   123  121  127 1   
   124  122  123 1   
   125  122  125 1   
   126  122  128 1   
   127  123  124 2   
   128  123  132 1   
   129  125  126 1   
   130  125  129 1   
   131  125  130 1   
   132  126  131 1   
   133  132  133 1   
   134  132  137 1   
   135  133  134 1   
   136  133  136 1   
   137  133  138 1   
   138  134  135 2   
   139  134  142 1   
   140  136  139 1   
   141  136  140 1   
   142  136  141 1   
   143  142  143 1   
   144  142  147 1   
   145  143  144 1   
   146  143  146 1   
   147  143  148 1   
   148  144  145 2   
   149  144  152 1   
   150  146  149 1   
   151  146  150 1   
   152  146  151 1   
   153  152  153 1   
   154  152  161 1   
   155  153  154 1   
   156  153  156 1   
   157  153  162 1   
   158  154  155 2   
   159  154  167 1   
   160  156  157 1   
   161  156  163 1   
   162  156  164 1   
   163  157  158 1   
   164  157  165 1   
   165  157  166 1   
   166  158  159 1   
   167  158  160 1   
   168  167  168 1   
   169  167  172 1   
   170  168  169 1   
   171  168  170 1   
   172  168  171 1   
   173  174  175 1   
   174  174  176 1   
   175  177  178 1   
   176  177  179 1   
@<TRIPOS>SUBSTRUCTURE
     1 MOL         1 TEMP              0 ****  ****    0 ROOT
