@<TRIPOS>MOLECULE
MOL
  175   173     1     0     0
SMALL
resp


@<TRIPOS>ATOM
      1 C1         -0.1140   -3.7740    5.4370 c3        1 MOL     -0.458839
      2 C2          0.5840   -3.7500    4.0640 c         1 MOL      0.743695
      3 O1         -0.1000   -3.9030    3.0160 o         1 MOL     -0.575204
      4 H1         -0.4980   -4.7750    5.6320 hc        1 MOL      0.116638
      5 H2          0.6020   -3.5020    6.2140 hc        1 MOL      0.116638
      6 H3         -0.9400   -3.0620    5.4380 hc        1 MOL      0.116638
      7 N1          1.9110   -3.5480    3.9620 n         1 MOL     -0.670404
      8 C3          2.6440   -3.3730    2.6730 c3        1 MOL      0.400210
      9 C4          2.5890   -4.5590    1.6640 c         1 MOL      0.373096
     10 O2          2.9540   -5.6870    2.0920 o         1 MOL     -0.597019
     11 C5          4.1470   -2.8880    2.8960 c3        1 MOL     -0.335602
     12 C6          4.6970   -2.6230    1.4880 c         1 MOL      0.651719
     13 O3          4.0410   -1.8970    0.6650 o         1 MOL     -0.586021
     14 O4          5.7390   -3.2000    1.1730 o         1 MOL     -0.586021
     15 H4          2.4660   -3.5690    4.8120 hn        1 MOL      0.321263
     16 H5          2.1160   -2.5810    2.1310 h1        1 MOL     -0.096909
     17 H6          4.7130   -3.6950    3.3770 hc        1 MOL      0.072784
     18 H7          4.2520   -1.9950    3.5030 hc        1 MOL      0.072784
     19 N2          2.2980   -4.4250    0.4040 n         1 MOL     -0.155657
     20 C7          2.4500   -5.5080   -0.5740 c3        1 MOL      0.216667
     21 C8          3.3730   -5.1600   -1.7380 c         1 MOL      0.397567
     22 O5          3.3220   -5.8260   -2.8100 o         1 MOL     -0.565789
     23 C9          1.0050   -5.7170   -1.0450 c3        1 MOL     -0.194320
     24 H8          1.8040   -3.5770    0.1500 hn        1 MOL      0.169706
     25 H9          2.8360   -6.4460   -0.1970 h1        1 MOL      0.044878
     26 H10         0.8550   -6.5910   -1.6860 hc        1 MOL      0.044400
     27 H11         0.4110   -6.0680   -0.1980 hc        1 MOL      0.044400
     28 H12         0.4690   -4.8040   -1.3230 hc        1 MOL      0.044400
     29 N3          4.1530   -4.0700   -1.6350 n         1 MOL     -0.252162
     30 C10         4.8780   -3.3670   -2.7320 c3        1 MOL      0.103273
     31 C11         6.2520   -2.5820   -2.4520 c         1 MOL      0.300505
     32 O6          7.2230   -2.5990   -3.2180 o         1 MOL     -0.528053
     33 C12         3.9380   -2.4270   -3.4930 c3        1 MOL     -0.057226
     34 C13         3.2190   -1.3740   -2.7140 c         1 MOL      0.608538
     35 O7          3.8380   -0.5380   -1.9990 o         1 MOL     -0.673124
     36 O8          1.9510   -1.3260   -2.8220 o         1 MOL     -0.673124
     37 H13         4.1200   -3.5000   -0.8040 hn        1 MOL      0.122482
     38 H14         5.2240   -4.0670   -3.4900 h1        1 MOL      0.047024
     39 H15         3.1890   -3.0630   -3.9690 hc        1 MOL      0.023465
     40 H16         4.5080   -1.9610   -4.3030 hc        1 MOL      0.023465
     41 N4          6.3010   -1.9640   -1.2360 n         1 MOL      0.095333
     42 C14         7.4210   -1.1400   -0.8070 c3        1 MOL     -0.194772
     43 C15         7.3620    0.3050   -1.2530 c         1 MOL      0.562775
     44 O9          8.3990    0.8630   -1.4160 o         1 MOL     -0.617637
     45 H17         5.5570   -2.1550   -0.5780 hn        1 MOL     -0.073835
     46 H18         8.3300   -1.5400   -1.2670 h1        1 MOL      0.086358
     47 H19         7.5490   -1.1480    0.2740 h1        1 MOL      0.086358
     48 N5          6.2190    0.8960   -1.5730 n         1 MOL     -0.317975
     49 C16         6.0820    2.2290   -2.2420 c3        1 MOL      0.138519
     50 C17         5.9500    3.3860   -1.1340 c         1 MOL      0.378236
     51 O10         5.8130    4.5520   -1.4090 o         1 MOL     -0.492751
     52 C18         5.0570    2.2050   -3.3430 c3        1 MOL     -0.223487
     53 C19         3.6030    2.2900   -2.8630 c         1 MOL      0.618566
     54 N6          2.6210    2.3990   -3.7090 n         1 MOL     -0.635235
     55 O11         3.3080    2.2150   -1.6480 o         1 MOL     -0.571795
     56 H20         5.3580    0.3710   -1.5900 hn        1 MOL      0.210387
     57 H21         7.0290    2.5200   -2.7040 h1        1 MOL      0.071048
     58 H22         5.1770    1.3480   -4.0040 hc        1 MOL      0.064277
     59 H23         5.1570    3.1150   -3.9360 hc        1 MOL      0.064277
     60 H24         2.8790    2.2400   -4.6820 hn        1 MOL      0.319365
     61 H25         1.6540    2.3300   -3.4220 hn        1 MOL      0.319365
     62 N7          6.1410    3.0360    0.1760 n         1 MOL     -0.225587
     63 C20         6.2890    3.9450    1.2880 c3        1 MOL     -0.217518
     64 C21         4.9610    4.4480    1.8230 c         1 MOL      0.585549
     65 O12         4.9160    5.0820    2.8790 o         1 MOL     -0.647145
     66 H26         6.2530    2.0670    0.4190 hn        1 MOL      0.211579
     67 H27         6.8970    4.7990    0.9920 h1        1 MOL      0.108795
     68 H28         6.7970    3.4610    2.1230 h1        1 MOL      0.108795
     69 N8          3.8790    4.2090    1.1930 n         1 MOL     -0.117301
     70 C22         2.5580    4.7290    1.4720 c3        1 MOL     -0.176292
     71 C23         1.4150    3.6460    1.4580 c         1 MOL      0.521613
     72 O13         1.6590    2.6190    0.8240 o         1 MOL     -0.559949
     73 C24         2.0700    5.6540    0.2980 c3        1 MOL      0.402204
     74 C25         2.6230    6.9840    0.4350 c3        1 MOL     -0.327502
     75 O14         2.4070    5.1570   -0.9650 oh        1 MOL     -0.565111
     76 H29         4.0250    3.5880    0.4080 hn        1 MOL      0.103044
     77 H30         2.5740    5.2100    2.4440 h1        1 MOL      0.125643
     78 H31         0.9740    5.7050    0.2140 h1        1 MOL     -0.001095
     79 H32         2.3010    4.2050   -0.9320 ho        1 MOL      0.365955
     80 H33         2.2480    7.3470    1.3840 hc        1 MOL      0.074861
     81 H34         3.7140    7.0700    0.4570 hc        1 MOL      0.074861
     82 H35         2.2600    7.6460   -0.3470 hc        1 MOL      0.074861
     83 N9          0.3480    3.7910    2.1570 n         1 MOL     -0.550772
     84 C26        -0.8660    2.9320    2.0630 c3        1 MOL      0.058562
     85 C27        -1.8130    3.1260    0.8580 c         1 MOL      0.660984
     86 O15        -2.2770    4.2540    0.6420 o         1 MOL     -0.619226
     87 C28        -1.6770    2.9590    3.3900 c3        1 MOL      0.066436
     88 C29        -0.7790    2.3660    4.5340 c3        1 MOL      0.071341
     89 C30        -2.9770    2.1680    3.2700 c3        1 MOL     -0.286391
     90 C31        -1.4460    2.2350    5.9110 c3        1 MOL     -0.117053
     91 H36         0.2740    4.6450    2.6910 hn        1 MOL      0.291580
     92 H37        -0.4130    1.9400    1.9860 h1        1 MOL      0.165698
     93 H38        -1.8610    4.0100    3.5770 hc        1 MOL      0.000389
     94 H39         0.0700    3.0470    4.5630 hc        1 MOL     -0.027910
     95 H40        -0.3920    1.4140    4.1710 hc        1 MOL     -0.027910
     96 H41        -2.6510    1.1670    2.9970 hc        1 MOL      0.066973
     97 H42        -3.5670    2.1230    4.1830 hc        1 MOL      0.066973
     98 H43        -3.5960    2.6500    2.5120 hc        1 MOL      0.066973
     99 H44        -2.2980    1.5490    5.8270 hc        1 MOL      0.026240
    100 H45        -0.7670    1.8710    6.6700 hc        1 MOL      0.026240
    101 H46        -1.6700    3.1980    6.3780 hc        1 MOL      0.026240
    102 N10        -2.0950    2.0090    0.1850 n         1 MOL     -0.144816
    103 C32        -2.8630    1.9930   -1.0560 c3        1 MOL     -0.055574
    104 C33        -4.3270    1.5350   -0.7670 c         1 MOL      0.507294
    105 O16        -4.6080    0.8950    0.2500 o         1 MOL     -0.409577
    106 C34        -2.2660    1.0170   -2.0210 c3        1 MOL     -0.172854
    107 C35        -0.8500    1.3950   -2.4290 c         1 MOL      0.776963
    108 O17         0.0830    0.8730   -1.8120 o         1 MOL     -0.697896
    109 O18        -0.6950    2.1530   -3.4200 o         1 MOL     -0.697896
    110 H47        -1.5860    1.1800    0.4600 hn        1 MOL     -0.140661
    111 H48        -2.8780    2.9780   -1.4960 h1        1 MOL      0.091147
    112 H49        -2.8650    0.9700   -2.9270 hc        1 MOL      0.030209
    113 H50        -2.3820    0.0600   -1.5270 hc        1 MOL      0.030209
    114 N11        -5.3250    1.8600   -1.6100 n         1 MOL     -0.677865
    115 C36        -6.6950    1.4080   -1.3370 c3        1 MOL      0.444908
    116 C37        -6.9330   -0.0820   -1.0110 c         1 MOL      0.315697
    117 O19        -7.7220   -0.4120   -0.0900 o         1 MOL     -0.487799
    118 C38        -7.6100    1.8370   -2.5270 c3        1 MOL     -0.179453
    119 C39        -9.0610    1.6190   -2.3610 ca        1 MOL      0.074775
    120 C40        -9.8260    2.5220   -1.6400 ca        1 MOL     -0.168413
    121 C41        -9.6530    0.4000   -2.8390 ca        1 MOL     -0.168413
    122 C42       -11.2070    2.3070   -1.3540 ca        1 MOL     -0.137780
    123 C43       -10.9880    0.1110   -2.4890 ca        1 MOL     -0.137780
    124 C44       -11.7530    1.0410   -1.8070 ca        1 MOL     -0.064244
    125 H51        -5.0810    2.3830   -2.4380 hn        1 MOL      0.342290
    126 H52        -7.1230    1.9020   -0.4680 h1        1 MOL      0.007887
    127 H53        -7.2130    1.4200   -3.4530 hc        1 MOL      0.047088
    128 H54        -7.5410    2.9260   -2.5430 hc        1 MOL      0.047088
    129 H55        -9.2950    3.3690   -1.2350 ha        1 MOL      0.127286
    130 H56        -9.0770   -0.2770   -3.4590 ha        1 MOL      0.127286
    131 H57       -11.7150    3.0770   -0.7900 ha        1 MOL      0.123719
    132 H58       -11.3980   -0.8490   -2.7700 ha        1 MOL      0.123719
    133 H59       -12.7990    0.7980   -1.7660 ha        1 MOL      0.081489
    134 N12        -6.3100   -1.1340   -1.6610 n         1 MOL     -0.081711
    135 C45        -6.4100   -2.5450   -1.1570 c3        1 MOL      0.132604
    136 C46        -5.8830   -2.6810    0.2300 c         1 MOL      0.285265
    137 O20        -6.3730   -3.4250    1.0550 o         1 MOL     -0.487290
    138 C47        -5.7510   -3.4090   -2.1860 c3        1 MOL     -0.014704
    139 C48        -5.7610   -2.5810   -3.4420 c3        1 MOL      0.027229
    140 C49        -5.6650   -1.1440   -3.0020 c3        1 MOL     -0.201642
    141 H60        -7.4770   -2.7720   -1.1780 h1        1 MOL      0.024724
    142 H61        -4.7560   -3.7810   -1.9250 hc        1 MOL      0.021753
    143 H62        -6.3450   -4.3110   -2.3120 hc        1 MOL      0.021753
    144 H63        -5.0340   -2.8930   -4.1950 hc        1 MOL      0.015265
    145 H64        -6.7200   -2.6420   -3.9680 hc        1 MOL      0.015265
    146 H65        -4.6120   -0.9280   -2.8180 h1        1 MOL      0.096443
    147 H66        -6.1680   -0.4990   -3.7260 h1        1 MOL      0.096443
    148 N13        -4.6890   -2.0450    0.4740 n         1 MOL     -0.156315
    149 C50        -4.0030   -2.2000    1.7720 c3        1 MOL     -0.220028
    150 C51        -4.6830   -1.5080    2.9830 c         1 MOL      0.410524
    151 O21        -4.4870   -1.9110    4.1580 o         1 MOL     -0.567427
    152 C52        -2.6090   -1.6360    1.6540 c3        1 MOL     -0.029909
    153 C53        -1.7390   -2.2730    0.5740 c3        1 MOL     -0.184736
    154 C54        -0.3690   -1.5980    0.4480 c         1 MOL      0.704218
    155 O22         0.5920   -2.2030   -0.0310 o         1 MOL     -0.657601
    156 O23        -0.1690   -0.4110    0.9280 o         1 MOL     -0.657601
    157 H67        -4.3040   -1.4060   -0.1960 hn        1 MOL      0.208697
    158 H68        -4.0940   -3.2770    1.9170 h1        1 MOL      0.165119
    159 H69        -2.0690   -1.7340    2.5970 hc        1 MOL      0.090076
    160 H70        -2.6710   -0.5650    1.4710 hc        1 MOL      0.090076
    161 H71        -2.1960   -2.2300   -0.4180 hc        1 MOL      0.071152
    162 H72        -1.7120   -3.3200    0.8820 hc        1 MOL      0.071152
    163 N14        -5.5370   -0.5920    2.6680 n         1 MOL      0.060431
    164 C55        -6.4530    0.0100    3.5930 c3        1 MOL     -0.164629
    165 H73        -6.7310   -0.7190    4.3530 h1        1 MOL      0.060688
    166 H74        -5.9790    0.8680    4.0680 h1        1 MOL      0.060688
    167 H75        -7.3450    0.3380    3.0600 h1        1 MOL      0.060688
    168 H76        -5.4790   -0.2210    1.7270 hn        1 MOL      0.062122
    169 Ca1         2.1120   -0.0070   -0.2900 Ca        1 MOL      1.722256
    170 O24         4.5570    0.5360    1.3060 oh        1 MOL     -0.795842
    171 H77         4.4260   -0.3690    1.0170 ho        1 MOL      0.384711
    172 H78         5.2440    0.4810    1.9650 ho        1 MOL      0.384711
    173 O25         2.0200    0.0480    2.4730 oh        1 MOL     -0.795842
    174 H79         2.2920   -0.0160    3.3830 ho        1 MOL      0.384711
    175 H80         1.0670   -0.0420    2.4990 ho        1 MOL      0.384711
@<TRIPOS>BOND
     1    1    2 1   
     2    1    4 1   
     3    1    5 1   
     4    1    6 1   
     5    2    3 2   
     6    2    7 1   
     7    7    8 1   
     8    7   15 1   
     9    8    9 1   
    10    8   11 1   
    11    8   16 1   
    12    9   10 2   
    13    9   19 1   
    14   11   12 1   
    15   11   17 1   
    16   11   18 1   
    17   12   13 1   
    18   12   14 1   
    19   19   20 1   
    20   19   24 1   
    21   20   21 1   
    22   20   23 1   
    23   20   25 1   
    24   21   22 2   
    25   21   29 1   
    26   23   26 1   
    27   23   27 1   
    28   23   28 1   
    29   29   30 1   
    30   29   37 1   
    31   30   31 1   
    32   30   33 1   
    33   30   38 1   
    34   31   32 2   
    35   31   41 1   
    36   33   34 1   
    37   33   39 1   
    38   33   40 1   
    39   34   35 1   
    40   34   36 1   
    41   41   42 1   
    42   41   45 1   
    43   42   43 1   
    44   42   46 1   
    45   42   47 1   
    46   43   44 2   
    47   43   48 1   
    48   48   49 1   
    49   48   56 1   
    50   49   50 1   
    51   49   52 1   
    52   49   57 1   
    53   50   51 2   
    54   50   62 1   
    55   52   53 1   
    56   52   58 1   
    57   52   59 1   
    58   53   54 1   
    59   53   55 2   
    60   54   60 1   
    61   54   61 1   
    62   62   63 1   
    63   62   66 1   
    64   63   64 1   
    65   63   67 1   
    66   63   68 1   
    67   64   65 2   
    68   64   69 1   
    69   69   70 1   
    70   69   76 1   
    71   70   71 1   
    72   70   73 1   
    73   70   77 1   
    74   71   72 2   
    75   71   83 1   
    76   73   74 1   
    77   73   75 1   
    78   73   78 1   
    79   74   80 1   
    80   74   81 1   
    81   74   82 1   
    82   75   79 1   
    83   83   84 1   
    84   83   91 1   
    85   84   85 1   
    86   84   87 1   
    87   84   92 1   
    88   85   86 2   
    89   85  102 1   
    90   87   88 1   
    91   87   89 1   
    92   87   93 1   
    93   88   90 1   
    94   88   94 1   
    95   88   95 1   
    96   89   96 1   
    97   89   97 1   
    98   89   98 1   
    99   90   99 1   
   100   90  100 1   
   101   90  101 1   
   102  102  103 1   
   103  102  110 1   
   104  103  104 1   
   105  103  106 1   
   106  103  111 1   
   107  104  105 2   
   108  104  114 1   
   109  106  107 1   
   110  106  112 1   
   111  106  113 1   
   112  107  108 1   
   113  107  109 1   
   114  114  115 1   
   115  114  125 1   
   116  115  116 1   
   117  115  118 1   
   118  115  126 1   
   119  116  117 2   
   120  116  134 1   
   121  118  119 1   
   122  118  127 1   
   123  118  128 1   
   124  119  120 ar  
   125  119  121 ar  
   126  120  122 ar  
   127  120  129 1   
   128  121  123 ar  
   129  121  130 1   
   130  122  124 ar  
   131  122  131 1   
   132  123  124 ar  
   133  123  132 1   
   134  124  133 1   
   135  134  135 1   
   136  134  140 1   
   137  135  136 1   
   138  135  138 1   
   139  135  141 1   
   140  136  137 2   
   141  136  148 1   
   142  138  139 1   
   143  138  142 1   
   144  138  143 1   
   145  139  140 1   
   146  139  144 1   
   147  139  145 1   
   148  140  146 1   
   149  140  147 1   
   150  148  149 1   
   151  148  157 1   
   152  149  150 1   
   153  149  152 1   
   154  149  158 1   
   155  150  151 2   
   156  150  163 1   
   157  152  153 1   
   158  152  159 1   
   159  152  160 1   
   160  153  154 1   
   161  153  161 1   
   162  153  162 1   
   163  154  155 1   
   164  154  156 1   
   165  163  164 1   
   166  163  168 1   
   167  164  165 1   
   168  164  166 1   
   169  164  167 1   
   170  170  171 1   
   171  170  172 1   
   172  173  174 1   
   173  173  175 1   
@<TRIPOS>SUBSTRUCTURE
     1 MOL         1 TEMP              0 ****  ****    0 ROOT
