@<TRIPOS>MOLECULE
MOL
  175   173     1     0     0
SMALL
resp


@<TRIPOS>ATOM
      1 C1          0.2940    3.8660    5.5880 c3        1 MOL     -0.349927
      2 C2         -0.2080    3.7690    4.1390 c         1 MOL      0.714795
      3 O1          0.5750    3.8160    3.1370 o         1 MOL     -0.567467
      4 H1         -0.1900    4.7060    6.0850 hc        1 MOL      0.089783
      5 H2          0.0560    2.9440    6.1180 hc        1 MOL      0.089783
      6 H3          1.3740    4.0180    5.5890 hc        1 MOL      0.089783
      7 N1         -1.5180    3.6310    3.9290 n         1 MOL     -0.668645
      8 C3         -2.2510    3.4800    2.6490 c3        1 MOL      0.330706
      9 C4         -2.5200    4.7650    1.9300 c         1 MOL      0.517991
     10 O2         -2.6780    5.8590    2.5620 o         1 MOL     -0.569297
     11 C5         -3.5470    2.7780    3.0160 c3        1 MOL     -0.240565
     12 C6         -4.3160    2.3130    1.8040 c         1 MOL      0.633219
     13 O3         -5.5730    2.5160    1.7050 o         1 MOL     -0.645553
     14 O4         -3.6810    1.7830    0.8720 o         1 MOL     -0.645553
     15 H4         -2.0940    3.6090    4.7570 hn        1 MOL      0.317635
     16 H5         -1.7750    2.7800    1.9550 h1        1 MOL     -0.029164
     17 H6         -4.0610    3.3990    3.7520 hc        1 MOL      0.040228
     18 H7         -3.2070    1.9220    3.5860 hc        1 MOL      0.040228
     19 N2         -2.7080    4.5620    0.6340 n         1 MOL     -0.547896
     20 C7         -3.0750    5.6700   -0.2840 c3        1 MOL      0.364354
     21 C8         -3.8460    5.1400   -1.5220 c         1 MOL      0.391785
     22 O5         -3.7350    5.7700   -2.5630 o         1 MOL     -0.555052
     23 C9         -1.9690    6.6010   -0.7220 c3        1 MOL     -0.283444
     24 H8         -2.5410    3.6180    0.3090 hn        1 MOL      0.369319
     25 H9         -3.8190    6.2560    0.2630 h1        1 MOL     -0.001308
     26 H10        -1.1870    6.1130   -1.3040 hc        1 MOL      0.069990
     27 H11        -2.2740    7.5030   -1.2480 hc        1 MOL      0.069990
     28 H12        -1.4950    7.0060    0.1790 hc        1 MOL      0.069990
     29 N3         -4.3920    3.9730   -1.4880 n         1 MOL     -0.396791
     30 C10        -4.8840    3.2140   -2.6920 c3        1 MOL      0.249885
     31 C11        -6.1890    2.4730   -2.4460 c         1 MOL      0.287071
     32 O6         -6.9760    2.1740   -3.3330 o         1 MOL     -0.535064
     33 C12        -3.8400    2.3400   -3.3620 c3        1 MOL      0.002682
     34 C13        -3.2580    1.2820   -2.5170 c         1 MOL      0.613110
     35 O7         -3.9900    0.5790   -1.7960 o         1 MOL     -0.700836
     36 O8         -2.0190    1.1890   -2.3400 o         1 MOL     -0.700836
     37 H13        -4.5140    3.5350   -0.5800 hn        1 MOL      0.250259
     38 H14        -5.1120    3.8860   -3.5250 h1        1 MOL      0.021702
     39 H15        -3.0750    2.9360   -3.8630 hc        1 MOL      0.006126
     40 H16        -4.3420    1.8400   -4.1800 hc        1 MOL      0.006126
     41 N4         -6.3630    2.0670   -1.1980 n         1 MOL     -0.113225
     42 C14        -7.4550    1.2640   -0.6200 c3        1 MOL     -0.122962
     43 C15        -7.4950   -0.2170   -1.0020 c         1 MOL      0.526146
     44 O9         -8.6040   -0.7420   -0.8670 o         1 MOL     -0.598108
     45 H17        -5.6200    2.2220   -0.5150 hn        1 MOL      0.044751
     46 H18        -8.4400    1.7160   -0.7860 h1        1 MOL      0.091497
     47 H19        -7.2660    1.1580    0.4460 h1        1 MOL      0.091497
     48 N5         -6.3890   -0.8270   -1.5580 n         1 MOL     -0.293880
     49 C16        -6.2720   -2.2030   -2.0360 c3        1 MOL     -0.126959
     50 C17        -6.1970   -3.3390   -0.9540 c         1 MOL      0.511910
     51 O10        -6.1180   -4.4810   -1.3400 o         1 MOL     -0.544490
     52 C18        -5.1240   -2.2620   -3.0860 c3        1 MOL     -0.119018
     53 C19        -3.7240   -2.1900   -2.5190 c         1 MOL      0.346524
     54 N6         -2.7030   -1.9630   -3.2920 n         1 MOL     -0.582535
     55 O11        -3.4770   -2.2260   -1.3070 o         1 MOL     -0.080376
     56 H20        -5.5820   -0.2440   -1.6940 hn        1 MOL      0.294012
     57 H21        -7.1660   -2.4610   -2.5980 h1        1 MOL      0.117783
     58 H22        -5.2930   -1.5140   -3.8690 hc        1 MOL      0.061093
     59 H23        -5.1860   -3.2220   -3.5920 hc        1 MOL      0.061093
     60 H24        -2.9660   -1.8890   -4.2630 hn        1 MOL      0.298175
     61 H25        -1.7680   -1.8320   -2.9330 hn        1 MOL      0.298175
     62 N7         -6.1760   -2.9990    0.3390 n         1 MOL     -0.345949
     63 C20        -5.9950   -3.8960    1.4840 c3        1 MOL     -0.064906
     64 C21        -4.6350   -4.3460    1.8500 c         1 MOL      0.469571
     65 O12        -4.5240   -5.2050    2.7370 o         1 MOL     -0.584686
     66 H26        -6.0820   -1.9980    0.3700 hn        1 MOL      0.224522
     67 H27        -6.6270   -4.7710    1.3540 h1        1 MOL      0.092263
     68 H28        -6.4960   -3.4520    2.3440 h1        1 MOL      0.092263
     69 N8         -3.5500   -3.9320    1.1700 n         1 MOL     -0.128327
     70 C22        -2.2280   -4.5530    1.3150 c3        1 MOL     -0.015463
     71 C23        -1.1550   -3.5380    1.3920 c         1 MOL      0.507693
     72 O13        -1.3050   -2.3580    1.0710 o         1 MOL     -0.620531
     73 C24        -1.9420   -5.5630    0.1960 c3        1 MOL      0.451955
     74 C25        -2.8920   -6.7950    0.2540 c3        1 MOL     -0.538659
     75 O14        -2.1260   -4.9850   -1.1240 oh        1 MOL     -0.571220
     76 H29        -3.6590   -3.3820    0.3340 hn        1 MOL     -0.053079
     77 H30        -2.2250   -5.0610    2.2780 h1        1 MOL      0.051783
     78 H31        -0.9190   -5.9040    0.3470 h1        1 MOL     -0.045019
     79 H32        -1.6070   -4.1750   -1.1740 ho        1 MOL      0.325810
     80 H33        -3.8990   -6.5140   -0.0780 hc        1 MOL      0.144138
     81 H34        -2.5400   -7.5490   -0.4500 hc        1 MOL      0.144138
     82 H35        -3.0430   -7.2500    1.2360 hc        1 MOL      0.144138
     83 N9          0.0650   -3.9960    1.7400 n         1 MOL     -0.506008
     84 C26         1.2180   -3.1280    1.7400 c3        1 MOL     -0.013888
     85 C27         1.9520   -3.2170    0.4000 c         1 MOL      0.585353
     86 O15         2.5610   -4.1600   -0.0380 o         1 MOL     -0.601044
     87 C28         2.1050   -3.3160    2.9910 c3        1 MOL      0.230815
     88 C29         1.3090   -3.3760    4.2530 c3        1 MOL      0.113948
     89 C30         3.1450   -2.2360    3.0970 c3        1 MOL     -0.050846
     90 C31         2.1040   -3.7580    5.4900 c3        1 MOL     -0.208313
     91 H36         0.1670   -4.9440    2.0760 hn        1 MOL      0.272264
     92 H37         0.8390   -2.1170    1.8330 h1        1 MOL      0.142122
     93 H38         2.6710   -4.2290    2.7880 hc        1 MOL     -0.064281
     94 H39         0.5500   -4.1590    4.2050 hc        1 MOL     -0.024831
     95 H40         0.7730   -2.4510    4.4490 hc        1 MOL     -0.024831
     96 H41         2.7200   -1.2280    3.1460 hc        1 MOL     -0.024977
     97 H42         3.7770   -2.5430    3.9350 hc        1 MOL     -0.024977
     98 H43         3.7060   -2.2360    2.1610 hc        1 MOL     -0.024977
     99 H44         1.4780   -4.2820    6.2070 hc        1 MOL      0.041370
    100 H45         2.7900   -4.5620    5.2110 hc        1 MOL      0.041370
    101 H46         2.6630   -2.8880    5.8390 hc        1 MOL      0.041370
    102 N10         1.9630   -2.0460   -0.2800 n         1 MOL     -0.140843
    103 C32         2.6880   -1.7220   -1.4650 c3        1 MOL      0.042830
    104 C33         4.0470   -1.0880   -1.1300 c         1 MOL      0.389896
    105 O16         4.2080   -0.4400   -0.0700 o         1 MOL     -0.290956
    106 C34         1.8490   -0.8450   -2.2830 c3        1 MOL     -0.319464
    107 C35         0.4670   -1.4240   -2.6460 c         1 MOL      0.788280
    108 O17        -0.4540   -1.5340   -1.8560 o         1 MOL     -0.695258
    109 O18         0.3320   -1.7560   -3.8330 o         1 MOL     -0.695258
    110 H47         1.5210   -1.2500    0.1580 hn        1 MOL      0.038776
    111 H48         2.9630   -2.6430   -1.9750 h1        1 MOL      0.048362
    112 H49         2.3340   -0.5220   -3.2120 hc        1 MOL      0.082966
    113 H50         1.6090   -0.0340   -1.5990 hc        1 MOL      0.082966
    114 N11         4.9940   -1.3130   -2.0280 n         1 MOL     -0.516158
    115 C36         6.4300   -1.0150   -1.7210 c3        1 MOL      0.127182
    116 C37         6.7230    0.4470   -1.3200 c         1 MOL      0.280737
    117 O19         7.4490    0.5280   -0.3030 o         1 MOL     -0.455611
    118 C38         7.3160   -1.3420   -2.9600 c3        1 MOL     -0.130023
    119 C39         8.8290   -1.3980   -2.5210 ca        1 MOL      0.075583
    120 C40         9.6650   -0.3330   -2.8290 ca        1 MOL     -0.202795
    121 C41         9.3620   -2.4360   -1.7490 ca        1 MOL     -0.202795
    122 C42        10.9560   -0.3390   -2.3250 ca        1 MOL     -0.057419
    123 C43        10.6400   -2.3770   -1.1920 ca        1 MOL     -0.057419
    124 C44        11.4220   -1.3390   -1.4780 ca        1 MOL     -0.112800
    125 H51         4.8440   -1.9260   -2.8150 hn        1 MOL      0.324975
    126 H52         6.7180   -1.6400   -0.8790 h1        1 MOL      0.107587
    127 H53         7.0520   -0.5540   -3.6700 hc        1 MOL      0.058266
    128 H54         7.0630   -2.3100   -3.3980 hc        1 MOL      0.058266
    129 H55         9.3760    0.4760   -3.4800 ha        1 MOL      0.125162
    130 H56         8.6810   -3.2090   -1.4130 ha        1 MOL      0.125162
    131 H57        11.7510    0.3560   -2.5570 ha        1 MOL      0.089826
    132 H58        10.9430   -3.2230   -0.5850 ha        1 MOL      0.089826
    133 H59        12.4430   -1.2420   -1.1530 ha        1 MOL      0.091371
    134 N12         6.1230    1.5560   -1.7910 n         1 MOL      0.027648
    135 C45         6.3420    2.8510   -1.1410 c3        1 MOL     -0.025569
    136 C46         5.7790    2.8450    0.2860 c         1 MOL      0.333891
    137 O20         6.4960    3.3890    1.1290 o         1 MOL     -0.524633
    138 C47         5.8250    3.8980   -2.1060 c3        1 MOL      0.023144
    139 C48         4.9390    3.1770   -3.0550 c3        1 MOL     -0.116906
    140 C49         5.3230    1.7150   -3.0060 c3        1 MOL     -0.002635
    141 H60         7.4130    2.9840   -0.9730 h1        1 MOL      0.052038
    142 H61         5.3500    4.7690   -1.6360 hc        1 MOL      0.025193
    143 H62         6.6980    4.2950   -2.6320 hc        1 MOL      0.025193
    144 H63         3.9240    3.3030   -2.6720 hc        1 MOL      0.047758
    145 H64         5.1640    3.5770   -4.0420 hc        1 MOL      0.047758
    146 H65         4.4910    1.0250   -3.1180 h1        1 MOL      0.026196
    147 H66         6.0330    1.4720   -3.7990 h1        1 MOL      0.026196
    148 N13         4.6820    2.1610    0.5820 n         1 MOL     -0.117567
    149 C50         4.0840    2.0260    1.9580 c3        1 MOL     -0.161721
    150 C51         4.9650    1.1540    2.8970 c         1 MOL      0.486708
    151 O21         4.9630    1.3870    4.1090 o         1 MOL     -0.573782
    152 C52         2.5670    1.6010    1.8530 c3        1 MOL      0.241316
    153 C53         1.8950    2.0000    0.4990 c3        1 MOL     -0.366837
    154 C54         0.5370    1.3330    0.5010 c         1 MOL      0.878397
    155 O22        -0.4370    1.8210   -0.1520 o         1 MOL     -0.769790
    156 O23         0.3270    0.2370    1.0670 o         1 MOL     -0.769790
    157 H67         4.1100    1.8280   -0.1870 hn        1 MOL      0.175182
    158 H68         4.0840    3.0260    2.3970 h1        1 MOL      0.089286
    159 H69         1.9520    1.9930    2.6660 hc        1 MOL     -0.031202
    160 H70         2.6780    0.5260    1.7620 hc        1 MOL     -0.031202
    161 H71         2.5300    1.6730   -0.3190 hc        1 MOL      0.096193
    162 H72         1.8010    3.0790    0.4640 hc        1 MOL      0.096193
    163 N14         5.6880    0.2030    2.3540 n         1 MOL     -0.029461
    164 C55         6.8620   -0.4100    3.0570 c3        1 MOL     -0.304314
    165 H73         7.3250   -1.1540    2.4080 h1        1 MOL      0.106803
    166 H74         7.5900    0.3660    3.2940 h1        1 MOL      0.106803
    167 H75         6.5270   -0.8880    3.9770 h1        1 MOL      0.106803
    168 H76         5.6060    0.0090    1.3610 hn        1 MOL      0.076899
    169 Ca1        -2.0220   -0.1850   -0.1790 Ca        1 MOL      1.679425
    170 O24        -1.8740   -0.0040    2.3810 oh        1 MOL     -0.828382
    171 H77        -0.9230    0.0570    2.2740 ho        1 MOL      0.403903
    172 H78        -2.0160    0.1800    3.3170 ho        1 MOL      0.403903
    173 O25        -4.6640   -0.6570    1.0090 oh        1 MOL     -0.828382
    174 H79        -4.7290    0.2950    0.9370 ho        1 MOL      0.403903
    175 H80        -5.1050   -0.8670    1.8340 ho        1 MOL      0.403903
@<TRIPOS>BOND
     1    1    2 1   
     2    1    4 1   
     3    1    5 1   
     4    1    6 1   
     5    2    3 2   
     6    2    7 1   
     7    7    8 1   
     8    7   15 1   
     9    8    9 1   
    10    8   11 1   
    11    8   16 1   
    12    9   10 2   
    13    9   19 1   
    14   11   12 1   
    15   11   17 1   
    16   11   18 1   
    17   12   13 1   
    18   12   14 1   
    19   19   20 1   
    20   19   24 1   
    21   20   21 1   
    22   20   23 1   
    23   20   25 1   
    24   21   22 2   
    25   21   29 1   
    26   23   26 1   
    27   23   27 1   
    28   23   28 1   
    29   29   30 1   
    30   29   37 1   
    31   30   31 1   
    32   30   33 1   
    33   30   38 1   
    34   31   32 2   
    35   31   41 1   
    36   33   34 1   
    37   33   39 1   
    38   33   40 1   
    39   34   35 1   
    40   34   36 1   
    41   41   42 1   
    42   41   45 1   
    43   42   43 1   
    44   42   46 1   
    45   42   47 1   
    46   43   44 2   
    47   43   48 1   
    48   48   49 1   
    49   48   56 1   
    50   49   50 1   
    51   49   52 1   
    52   49   57 1   
    53   50   51 2   
    54   50   62 1   
    55   52   53 1   
    56   52   58 1   
    57   52   59 1   
    58   53   54 1   
    59   53   55 2   
    60   54   60 1   
    61   54   61 1   
    62   62   63 1   
    63   62   66 1   
    64   63   64 1   
    65   63   67 1   
    66   63   68 1   
    67   64   65 2   
    68   64   69 1   
    69   69   70 1   
    70   69   76 1   
    71   70   71 1   
    72   70   73 1   
    73   70   77 1   
    74   71   72 2   
    75   71   83 1   
    76   73   74 1   
    77   73   75 1   
    78   73   78 1   
    79   74   80 1   
    80   74   81 1   
    81   74   82 1   
    82   75   79 1   
    83   83   84 1   
    84   83   91 1   
    85   84   85 1   
    86   84   87 1   
    87   84   92 1   
    88   85   86 2   
    89   85  102 1   
    90   87   88 1   
    91   87   89 1   
    92   87   93 1   
    93   88   90 1   
    94   88   94 1   
    95   88   95 1   
    96   89   96 1   
    97   89   97 1   
    98   89   98 1   
    99   90   99 1   
   100   90  100 1   
   101   90  101 1   
   102  102  103 1   
   103  102  110 1   
   104  103  104 1   
   105  103  106 1   
   106  103  111 1   
   107  104  105 2   
   108  104  114 1   
   109  106  107 1   
   110  106  112 1   
   111  106  113 1   
   112  107  108 1   
   113  107  109 1   
   114  114  115 1   
   115  114  125 1   
   116  115  116 1   
   117  115  118 1   
   118  115  126 1   
   119  116  117 2   
   120  116  134 1   
   121  118  119 1   
   122  118  127 1   
   123  118  128 1   
   124  119  120 ar  
   125  119  121 ar  
   126  120  122 ar  
   127  120  129 1   
   128  121  123 ar  
   129  121  130 1   
   130  122  124 ar  
   131  122  131 1   
   132  123  124 ar  
   133  123  132 1   
   134  124  133 1   
   135  134  135 1   
   136  134  140 1   
   137  135  136 1   
   138  135  138 1   
   139  135  141 1   
   140  136  137 2   
   141  136  148 1   
   142  138  139 1   
   143  138  142 1   
   144  138  143 1   
   145  139  140 1   
   146  139  144 1   
   147  139  145 1   
   148  140  146 1   
   149  140  147 1   
   150  148  149 1   
   151  148  157 1   
   152  149  150 1   
   153  149  152 1   
   154  149  158 1   
   155  150  151 2   
   156  150  163 1   
   157  152  153 1   
   158  152  159 1   
   159  152  160 1   
   160  153  154 1   
   161  153  161 1   
   162  153  162 1   
   163  154  155 1   
   164  154  156 1   
   165  163  164 1   
   166  163  168 1   
   167  164  165 1   
   168  164  166 1   
   169  164  167 1   
   170  170  171 1   
   171  170  172 1   
   172  173  174 1   
   173  173  175 1   
@<TRIPOS>SUBSTRUCTURE
     1 MOL         1 TEMP              0 ****  ****    0 ROOT
