@<TRIPOS>MOLECULE
MOL
  189   185     1     0     0
SMALL
resp


@<TRIPOS>ATOM
      1 C1         -0.1280   -2.6880    6.3620 c3        1 MOL     -0.464480
      2 C2          0.6110   -2.3680    5.0970 c         1 MOL      0.756030
      3 O1          0.9830   -1.2300    4.8710 o         1 MOL     -0.620037
      4 H1         -1.1220   -2.2420    6.3250 hc        1 MOL      0.116261
      5 H2         -0.2190   -3.7700    6.4670 hc        1 MOL      0.116261
      6 H3          0.4180   -2.2840    7.2150 hc        1 MOL      0.116261
      7 N1          1.0390   -3.3810    4.3430 n         1 MOL     -0.607742
      8 C3          1.7100   -3.2690    3.0780 c3        1 MOL      0.210583
      9 C4          1.3790   -4.4690    2.2080 c         1 MOL      0.362682
     10 O2          1.2300   -5.5920    2.7270 o         1 MOL     -0.585522
     11 C5          3.1920   -3.2220    3.2810 c3        1 MOL     -0.062909
     12 C6          4.0020   -3.0640    1.9610 c         1 MOL      0.624788
     13 O3          5.0540   -3.8070    1.8910 o         1 MOL     -0.679287
     14 O4          3.6150   -2.3160    1.0510 o         1 MOL     -0.679287
     15 H4          0.8660   -4.3360    4.6130 hn        1 MOL      0.302503
     16 H5          1.4280   -2.3940    2.5000 h1        1 MOL      0.100444
     17 H6          3.6050   -4.0400    3.8620 hc        1 MOL      0.009050
     18 H7          3.4470   -2.3680    3.9060 hc        1 MOL      0.009050
     19 N2          1.3040   -4.3350    0.8880 n         1 MOL     -0.077818
     20 C7          1.2600   -5.4060   -0.1800 c3        1 MOL     -0.079000
     21 C8          2.5510   -5.5320   -1.0590 c         1 MOL      0.604776
     22 O5          2.7470   -6.5360   -1.6640 o         1 MOL     -0.571897
     23 C9          0.0650   -5.1340   -1.0540 c3        1 MOL      0.253739
     24 C10        -1.2300   -5.2520   -0.0870 c3        1 MOL     -0.217736
     25 C11        -0.1260   -6.0650   -2.2300 c3        1 MOL     -0.324898
     26 C12        -2.4090   -4.6560   -0.8570 c3        1 MOL     -0.369977
     27 H8          1.1850   -3.4140    0.4870 hn        1 MOL      0.168820
     28 H9          1.1150   -6.4120    0.2230 h1        1 MOL      0.058457
     29 H10         0.1010   -4.1080   -1.4100 hc        1 MOL      0.013523
     30 H11        -1.2020   -4.8480    0.9300 hc        1 MOL      0.069527
     31 H12        -1.5100   -6.2900    0.0820 hc        1 MOL      0.069527
     32 H13        -0.1620   -7.0740   -1.8130 hc        1 MOL      0.071013
     33 H14        -1.0330   -5.8190   -2.7800 hc        1 MOL      0.071013
     34 H15         0.7260   -6.0370   -2.9170 hc        1 MOL      0.071013
     35 H16        -2.8290   -5.4310   -1.4930 hc        1 MOL      0.128495
     36 H17        -3.2670   -4.4870   -0.2020 hc        1 MOL      0.128495
     37 H18        -2.2080   -3.6680   -1.2830 hc        1 MOL      0.128495
     38 N3          3.4020   -4.4780   -1.1130 n         1 MOL     -0.408723
     39 C13         4.2840   -4.1130   -2.2490 c3        1 MOL      0.111717
     40 C14         5.7040   -3.6090   -1.9070 c         1 MOL      0.362027
     41 O6          6.6630   -3.8790   -2.6770 o         1 MOL     -0.564052
     42 C15         3.5180   -3.2560   -3.2580 c3        1 MOL     -0.204249
     43 C16         3.0240   -1.8920   -2.8000 c         1 MOL      0.824169
     44 O7          3.6850   -1.3900   -1.9060 o         1 MOL     -0.726943
     45 O8          2.0760   -1.4120   -3.3480 o         1 MOL     -0.726943
     46 H19         3.2270   -3.7280   -0.4570 hn        1 MOL      0.099909
     47 H20         4.4730   -5.0080   -2.8370 h1        1 MOL      0.066807
     48 H21         2.6430   -3.8270   -3.5760 hc        1 MOL      0.040317
     49 H22         4.1560   -3.0460   -4.1110 hc        1 MOL      0.040317
     50 N4          5.9170   -2.9950   -0.7120 n         1 MOL     -0.050911
     51 C17         7.2040   -2.4960   -0.3490 c3        1 MOL     -0.239325
     52 C18         7.5790   -1.1620   -1.0330 c         1 MOL      0.558926
     53 O9          8.7380   -0.8670   -1.0150 o         1 MOL     -0.614146
     54 H23         5.1650   -2.8880   -0.0470 hn        1 MOL      0.173876
     55 H24         7.9780   -3.2380   -0.5270 h1        1 MOL      0.101403
     56 H25         7.1760   -2.2940    0.7210 h1        1 MOL      0.101403
     57 N5          6.5780   -0.3870   -1.4220 n         1 MOL     -0.258370
     58 C19         6.7790    0.8590   -2.2360 c3        1 MOL     -0.003082
     59 C20         7.0700    2.1080   -1.4720 c         1 MOL      0.432989
     60 O10         7.4300    3.0810   -2.0630 o         1 MOL     -0.537092
     61 C21         5.5960    1.1090   -3.1530 c3        1 MOL     -0.233901
     62 C22         4.3610    1.6350   -2.4700 c         1 MOL      0.806901
     63 O11         4.2600    1.6210   -1.2180 o         1 MOL     -0.722311
     64 O12         3.3710    2.0830   -3.1450 o         1 MOL     -0.722311
     65 H26         5.6450   -0.7810   -1.3670 hn        1 MOL      0.215135
     66 H27         7.6450    0.7080   -2.8790 h1        1 MOL      0.095262
     67 H28         5.3990    0.1180   -3.5750 hc        1 MOL      0.062908
     68 H29         5.8700    1.7640   -3.9920 hc        1 MOL      0.062908
     69 N6          6.8960    2.0360   -0.1610 n         1 MOL     -0.207215
     70 C23         7.0450    3.0860    0.8730 c3        1 MOL     -0.395630
     71 C24         5.8610    4.0260    1.0960 c         1 MOL      0.592204
     72 O13         6.0240    4.9940    1.8560 o         1 MOL     -0.599910
     73 H30         6.4820    1.1830    0.1900 hn        1 MOL      0.212303
     74 H31         7.7760    3.7740    0.4310 h1        1 MOL      0.155889
     75 H32         7.3550    2.5810    1.7840 h1        1 MOL      0.155889
     76 N7          4.7340    3.8330    0.3980 n         1 MOL     -0.347340
     77 C25         3.5150    4.5550    0.6590 c3        1 MOL     -0.016200
     78 C26         2.3010    3.6390    0.9280 c         1 MOL      0.573915
     79 O14         2.3410    2.4400    0.7100 o         1 MOL     -0.622151
     80 C27         3.3250    5.5990   -0.4250 c3        1 MOL      0.023068
     81 C28         4.4260    6.6420   -0.3840 c3        1 MOL     -0.223908
     82 C29         4.0790    7.8110   -1.3360 c         1 MOL      0.597377
     83 N8          4.6810    7.8230   -2.4720 n         1 MOL     -0.728603
     84 O15         3.3430    8.7330   -0.9740 o         1 MOL     -0.582699
     85 H33         4.7450    2.9930   -0.1540 hn        1 MOL      0.279535
     86 H34         3.5650    5.0950    1.6070 h1        1 MOL      0.048029
     87 H35         2.3720    6.0940   -0.2400 hc        1 MOL      0.043577
     88 H36         3.3040    5.2010   -1.4390 hc        1 MOL      0.043577
     89 H37         5.4180    6.2540   -0.5860 hc        1 MOL      0.090255
     90 H38         4.4550    6.9710    0.6540 hc        1 MOL      0.090255
     91 H39         5.3690    7.1390   -2.7300 hn        1 MOL      0.347513
     92 H40         4.3600    8.5160   -3.1350 hn        1 MOL      0.347513
     93 N9          1.2370    4.1620    1.5520 n         1 MOL     -0.530015
     94 C30         0.0080    3.2970    1.7860 c3        1 MOL      0.086031
     95 C31        -1.0230    3.5090    0.7010 c         1 MOL      0.415096
     96 O16        -1.4040    4.6570    0.3630 o         1 MOL     -0.573750
     97 C32        -0.6210    3.6800    3.1350 c3        1 MOL      0.240642
     98 C33        -1.8960    2.8450    3.5360 c3        1 MOL     -0.368068
     99 C34         0.4530    3.6630    4.1770 c3        1 MOL     -0.368068
    100 H41         1.2920    5.1310    1.8610 hn        1 MOL      0.326856
    101 H42         0.3020    2.2700    1.9790 h1        1 MOL      0.082873
    102 H43        -0.8750    4.7370    3.1060 hc        1 MOL     -0.025670
    103 H44        -1.6120    1.8450    3.8870 hc        1 MOL      0.083372
    104 H45        -2.3600    3.2800    4.4190 hc        1 MOL      0.083372
    105 H46        -2.5680    2.7930    2.6810 hc        1 MOL      0.083372
    106 H47         1.0120    4.6000    4.2190 hc        1 MOL      0.083372
    107 H48         0.0040    3.5430    5.1580 hc        1 MOL      0.083372
    108 H49         1.0370    2.7490    4.1350 hc        1 MOL      0.083372
    109 N10        -1.3420    2.4010    0.0310 n         1 MOL     -0.136707
    110 C35        -2.4060    2.2610   -0.9750 c3        1 MOL      0.090185
    111 C36        -3.8230    2.0960   -0.3670 c         1 MOL      0.351296
    112 O17        -3.8990    1.6970    0.7800 o         1 MOL     -0.244921
    113 C37        -2.0220    1.1950   -1.9330 c3        1 MOL     -0.085873
    114 C38        -2.8380    1.0090   -3.2680 c         1 MOL      0.614838
    115 N11        -2.2250    0.3140   -4.2160 n         1 MOL     -0.801907
    116 O18        -3.9150    1.4980   -3.4870 o         1 MOL     -0.573796
    117 H50        -0.7270    1.6090    0.1460 hn        1 MOL      0.181385
    118 H51        -2.4340    3.1860   -1.5520 h1        1 MOL      0.035535
    119 H52        -2.0890    0.2520   -1.3890 hc        1 MOL      0.040027
    120 H53        -0.9730    1.2700   -2.2380 hc        1 MOL      0.040027
    121 H54        -1.3100   -0.0550   -4.0050 hn        1 MOL      0.388342
    122 H55        -2.5210    0.3860   -5.1780 hn        1 MOL      0.388342
    123 N12        -4.8760    2.3900   -1.1280 n         1 MOL     -0.677227
    124 C39        -6.2700    2.1470   -0.7280 c3        1 MOL      0.479193
    125 C40        -6.5050    0.6650   -0.3750 c         1 MOL      0.557418
    126 O19        -7.2210    0.4590    0.6440 o         1 MOL     -0.519199
    127 C41        -7.2120    2.5860   -1.8660 c3        1 MOL     -0.260897
    128 C42        -8.7180    2.5260   -1.4890 ca        1 MOL     -0.097269
    129 C43        -9.1230    2.6490   -0.1810 ca        1 MOL      0.019834
    130 C44        -9.6160    2.2260   -2.4800 ca        1 MOL      0.019834
    131 C45       -10.5220    2.5050    0.1900 ca        1 MOL     -0.464237
    132 C46       -11.0090    2.2400   -2.1840 ca        1 MOL     -0.464237
    133 C47       -11.4840    2.2990   -0.8460 ca        1 MOL      0.511778
    134 O20       -12.8110    2.1850   -0.6650 oh        1 MOL     -0.496891
    135 H56        -4.6760    2.8370   -2.0140 hn        1 MOL      0.330986
    136 H57        -6.4930    2.7170    0.1690 h1        1 MOL     -0.005165
    137 H58        -7.0420    1.9770   -2.7560 hc        1 MOL      0.091707
    138 H59        -7.0340    3.6400   -2.0920 hc        1 MOL      0.091707
    139 H60        -8.3750    2.8990    0.5530 ha        1 MOL      0.094067
    140 H61        -9.2820    2.0480   -3.4910 ha        1 MOL      0.094067
    141 H62       -10.8380    2.5740    1.2190 ha        1 MOL      0.185137
    142 H63       -11.7750    2.0290   -2.9240 ha        1 MOL      0.185137
    143 H64       -13.1820    2.0250   -1.5310 ho        1 MOL      0.326912
    144 N13        -5.8890   -0.2980   -1.0800 n         1 MOL     -0.481569
    145 C48        -5.7650   -1.6930   -0.7820 c3        1 MOL      0.087240
    146 C49        -5.0830   -2.0510    0.6120 c         1 MOL      0.370982
    147 O21        -5.2780   -3.1030    1.1530 o         1 MOL     -0.467666
    148 C50        -4.9390   -2.2070   -1.9010 c3        1 MOL     -0.041737
    149 C51        -5.4090   -3.7250   -2.1150 c3        1 MOL     -0.204073
    150 C52        -6.7050   -3.8850   -2.9430 c         1 MOL      0.759241
    151 O22        -7.8020   -4.1460   -2.3510 o         1 MOL     -0.749971
    152 O23        -6.6320   -3.8030   -4.2040 o         1 MOL     -0.749971
    153 H65        -5.4280   -0.0330   -1.9350 hn        1 MOL      0.291909
    154 H66        -6.7220   -2.2270   -0.7730 h1        1 MOL      0.088761
    155 H67        -3.8970   -2.0160   -1.6380 hc        1 MOL      0.026539
    156 H68        -5.2630   -1.7260   -2.8270 hc        1 MOL      0.026539
    157 H69        -5.5510   -4.1520   -1.1120 hc        1 MOL      0.009296
    158 H70        -4.6280   -4.4010   -2.4710 hc        1 MOL      0.009296
    159 N14        -4.3900   -1.0520    1.2330 n         1 MOL     -0.279550
    160 C53        -3.6180   -1.2100    2.5040 c3        1 MOL      0.078182
    161 C54        -4.2510   -0.3210    3.5820 c         1 MOL      0.488123
    162 O24        -4.2690   -0.7510    4.7200 o         1 MOL     -0.602615
    163 C55        -2.1230   -0.8400    2.3510 c3        1 MOL     -0.102700
    164 C56        -1.4560   -1.6570    1.2440 c3        1 MOL     -0.112660
    165 C57        -0.1000   -1.0590    0.8820 c         1 MOL      0.539420
    166 O25         0.6620   -1.7320    0.1580 o         1 MOL     -0.667047
    167 O26         0.2880    0.0990    1.1760 o         1 MOL     -0.667047
    168 H71        -4.2340   -0.2120    0.6970 hn        1 MOL      0.092210
    169 H72        -3.7970   -2.2300    2.8530 h1        1 MOL      0.062786
    170 H73        -1.7010   -1.0070    3.3460 hc        1 MOL      0.045684
    171 H74        -2.1350    0.2090    2.0840 hc        1 MOL      0.045684
    172 H75        -2.0750   -1.5300    0.3570 hc        1 MOL      0.068488
    173 H76        -1.3400   -2.6710    1.6170 hc        1 MOL      0.068488
    174 N15        -4.8830    0.7720    3.3130 n         1 MOL     -0.076541
    175 C58        -5.5790    1.6680    4.2950 c3        1 MOL     -0.163723
    176 H77        -6.6390    1.4160    4.3280 h1        1 MOL      0.071213
    177 H78        -5.1430    1.5320    5.2850 h1        1 MOL      0.071213
    178 H79        -5.4620    2.7080    3.9870 h1        1 MOL      0.071213
    179 H80        -4.9550    1.0990    2.3540 hn        1 MOL      0.021617
    180 Ca1         2.7580   -0.0190    0.1810 Ca        1 MOL      1.703245
    181 O27         2.6100    0.2050    2.8180 oh        1 MOL     -0.840846
    182 H81         2.8550    0.9560    3.3580 ho        1 MOL      0.412397
    183 H82         1.7620   -0.0680    3.1670 ho        1 MOL      0.412397
    184 O28         1.3300    0.7520   -2.0720 oh        1 MOL     -0.840846
    185 H83         1.4860   -0.1130   -2.4580 ho        1 MOL      0.412397
    186 H84         1.9930    1.3120   -2.4550 ho        1 MOL      0.412397
    187 O29         5.1580    0.0270    1.6150 oh        1 MOL     -0.840846
    188 H85         4.6380    0.4130    2.3120 ho        1 MOL      0.412397
    189 H86         6.0050   -0.1590    2.0190 ho        1 MOL      0.412397
@<TRIPOS>BOND
     1    1    2 1   
     2    1    4 1   
     3    1    5 1   
     4    1    6 1   
     5    2    3 2   
     6    2    7 1   
     7    7    8 1   
     8    7   15 1   
     9    8    9 1   
    10    8   11 1   
    11    8   16 1   
    12    9   10 2   
    13    9   19 1   
    14   11   12 1   
    15   11   17 1   
    16   11   18 1   
    17   12   13 1   
    18   12   14 1   
    19   19   20 1   
    20   19   27 1   
    21   20   21 1   
    22   20   23 1   
    23   20   28 1   
    24   21   22 2   
    25   21   38 1   
    26   23   24 1   
    27   23   25 1   
    28   23   29 1   
    29   24   26 1   
    30   24   30 1   
    31   24   31 1   
    32   25   32 1   
    33   25   33 1   
    34   25   34 1   
    35   26   35 1   
    36   26   36 1   
    37   26   37 1   
    38   38   39 1   
    39   38   46 1   
    40   39   40 1   
    41   39   42 1   
    42   39   47 1   
    43   40   41 2   
    44   40   50 1   
    45   42   43 1   
    46   42   48 1   
    47   42   49 1   
    48   43   44 1   
    49   43   45 1   
    50   50   51 1   
    51   50   54 1   
    52   51   52 1   
    53   51   55 1   
    54   51   56 1   
    55   52   53 2   
    56   52   57 1   
    57   57   58 1   
    58   57   65 1   
    59   58   59 1   
    60   58   61 1   
    61   58   66 1   
    62   59   60 2   
    63   59   69 1   
    64   61   62 1   
    65   61   67 1   
    66   61   68 1   
    67   62   63 1   
    68   62   64 1   
    69   69   70 1   
    70   69   73 1   
    71   70   71 1   
    72   70   74 1   
    73   70   75 1   
    74   71   72 2   
    75   71   76 1   
    76   76   77 1   
    77   76   85 1   
    78   77   78 1   
    79   77   80 1   
    80   77   86 1   
    81   78   79 2   
    82   78   93 1   
    83   80   81 1   
    84   80   87 1   
    85   80   88 1   
    86   81   82 1   
    87   81   89 1   
    88   81   90 1   
    89   82   83 1   
    90   82   84 2   
    91   83   91 1   
    92   83   92 1   
    93   93   94 1   
    94   93  100 1   
    95   94   95 1   
    96   94   97 1   
    97   94  101 1   
    98   95   96 2   
    99   95  109 1   
   100   97   98 1   
   101   97   99 1   
   102   97  102 1   
   103   98  103 1   
   104   98  104 1   
   105   98  105 1   
   106   99  106 1   
   107   99  107 1   
   108   99  108 1   
   109  109  110 1   
   110  109  117 1   
   111  110  111 1   
   112  110  113 1   
   113  110  118 1   
   114  111  112 2   
   115  111  123 1   
   116  113  114 1   
   117  113  119 1   
   118  113  120 1   
   119  114  115 1   
   120  114  116 2   
   121  115  121 1   
   122  115  122 1   
   123  123  124 1   
   124  123  135 1   
   125  124  125 1   
   126  124  127 1   
   127  124  136 1   
   128  125  126 2   
   129  125  144 1   
   130  127  128 1   
   131  127  137 1   
   132  127  138 1   
   133  128  129 ar  
   134  128  130 ar  
   135  129  131 ar  
   136  129  139 1   
   137  130  132 ar  
   138  130  140 1   
   139  131  133 ar  
   140  131  141 1   
   141  132  133 ar  
   142  132  142 1   
   143  133  134 1   
   144  134  143 1   
   145  144  145 1   
   146  144  153 1   
   147  145  146 1   
   148  145  148 1   
   149  145  154 1   
   150  146  147 2   
   151  146  159 1   
   152  148  149 1   
   153  148  155 1   
   154  148  156 1   
   155  149  150 1   
   156  149  157 1   
   157  149  158 1   
   158  150  151 1   
   159  150  152 1   
   160  159  160 1   
   161  159  168 1   
   162  160  161 1   
   163  160  163 1   
   164  160  169 1   
   165  161  162 2   
   166  161  174 1   
   167  163  164 1   
   168  163  170 1   
   169  163  171 1   
   170  164  165 1   
   171  164  172 1   
   172  164  173 1   
   173  165  166 1   
   174  165  167 1   
   175  174  175 1   
   176  174  179 1   
   177  175  176 1   
   178  175  177 1   
   179  175  178 1   
   180  181  182 1   
   181  181  183 1   
   182  184  185 1   
   183  184  186 1   
   184  187  188 1   
   185  187  189 1   
@<TRIPOS>SUBSTRUCTURE
     1 MOL         1 TEMP              0 ****  ****    0 ROOT
