@<TRIPOS>MOLECULE
MOL
  175   173     1     0     0
SMALL
resp


@<TRIPOS>ATOM
      1 C1          0.5460    3.7010    5.4140 c3        1 MOL     -0.372725
      2 C2         -0.0890    3.8090    4.0360 c         1 MOL      0.698497
      3 O1          0.4880    4.3250    3.0630 o         1 MOL     -0.551472
      4 H1          1.1870    2.8200    5.4500 hc        1 MOL      0.087383
      5 H2          1.1410    4.5920    5.6110 hc        1 MOL      0.087383
      6 H3         -0.2360    3.6110    6.1690 hc        1 MOL      0.087383
      7 N1         -1.3860    3.4750    4.0280 n         1 MOL     -0.562677
      8 C3         -2.1250    3.2530    2.8100 c3        1 MOL      0.102070
      9 C4         -2.3900    4.5510    2.0580 c         1 MOL      0.601610
     10 O2         -2.8540    5.5670    2.6010 o         1 MOL     -0.604715
     11 C5         -3.4730    2.6210    3.0190 c3        1 MOL     -0.432035
     12 C6         -4.1540    2.3560    1.6940 c         1 MOL      0.717864
     13 O3         -5.3800    2.6930    1.5520 o         1 MOL     -0.653448
     14 O4         -3.5240    1.7960    0.7110 o         1 MOL     -0.653448
     15 H4         -1.7610    3.1510    4.9060 hn        1 MOL      0.319205
     16 H5         -1.5030    2.6080    2.1890 h1        1 MOL      0.079777
     17 H6         -4.0110    3.3460    3.6330 hc        1 MOL      0.094208
     18 H7         -3.1850    1.7170    3.5550 hc        1 MOL      0.094208
     19 N2         -2.0320    4.5310    0.8040 n         1 MOL     -0.362021
     20 C7         -2.2010    5.6030   -0.1600 c3        1 MOL      0.075229
     21 C8         -2.8280    5.1590   -1.5530 c         1 MOL      0.600064
     22 O5         -2.6420    5.8120   -2.5760 o         1 MOL     -0.568268
     23 C9         -0.7540    6.0730   -0.3580 c3        1 MOL     -0.124941
     24 H8         -1.6090    3.6650    0.4900 hn        1 MOL      0.277180
     25 H9         -2.7910    6.4420    0.2150 h1        1 MOL      0.059450
     26 H10        -0.1190    6.2680    0.5050 hc        1 MOL      0.024518
     27 H11        -0.2450    5.2320   -0.8370 hc        1 MOL      0.024518
     28 H12        -0.8020    6.9460   -1.0130 hc        1 MOL      0.024518
     29 N3         -3.6570    4.0970   -1.6070 n         1 MOL     -0.508968
     30 C10        -4.5040    3.6690   -2.7700 c3        1 MOL      0.118354
     31 C11        -5.8210    2.9820   -2.4210 c         1 MOL      0.506964
     32 O6         -6.7010    3.0250   -3.2700 o         1 MOL     -0.593077
     33 C12        -3.6130    2.7520   -3.5600 c3        1 MOL     -0.164236
     34 C13        -3.0360    1.5390   -2.8010 c         1 MOL      0.800233
     35 O7         -1.8220    1.2870   -2.6300 o         1 MOL     -0.773331
     36 O8         -3.7580    0.7430   -2.1680 o         1 MOL     -0.773331
     37 H13        -3.6720    3.4830   -0.8030 hn        1 MOL      0.197926
     38 H14        -4.8380    4.5580   -3.2910 h1        1 MOL      0.068523
     39 H15        -2.7700    3.3530   -3.9060 hc        1 MOL      0.040974
     40 H16        -4.1200    2.4280   -4.4580 hc        1 MOL      0.040974
     41 N4         -6.0160    2.3240   -1.2760 n         1 MOL     -0.204679
     42 C14        -7.3250    1.6740   -0.9420 c3        1 MOL     -0.202393
     43 C15        -7.2410    0.1150   -0.9610 c         1 MOL      0.563131
     44 O9         -8.2110   -0.5700   -0.7040 o         1 MOL     -0.621065
     45 H17        -5.2340    2.0410   -0.7000 hn        1 MOL      0.140374
     46 H18        -8.0770    2.0670   -1.6280 h1        1 MOL      0.115841
     47 H19        -7.6460    1.8090    0.0970 h1        1 MOL      0.115841
     48 N5         -6.1510   -0.4940   -1.4750 n         1 MOL     -0.215488
     49 C16        -6.2280   -1.8780   -1.9230 c3        1 MOL     -0.059785
     50 C17        -6.2750   -2.8830   -0.7760 c         1 MOL      0.540894
     51 O10        -6.5140   -4.0470   -1.0360 o         1 MOL     -0.550951
     52 C18        -5.2500   -2.2360   -3.0680 c3        1 MOL     -0.085187
     53 C19        -3.8370   -2.3010   -2.6180 c         1 MOL      0.556631
     54 N6         -3.0050   -2.6790   -3.5080 n         1 MOL     -0.612879
     55 O11        -3.4070   -2.1290   -1.4820 o         1 MOL     -0.488667
     56 H20        -5.2550   -0.0650   -1.6720 hn        1 MOL      0.141683
     57 H21        -7.1680   -2.0030   -2.4560 h1        1 MOL      0.100100
     58 H22        -5.3220   -1.4280   -3.7990 hc        1 MOL      0.053246
     59 H23        -5.6200   -3.0870   -3.6450 hc        1 MOL      0.053246
     60 H24        -3.4030   -2.7750   -4.4250 hn        1 MOL      0.313042
     61 H25        -2.0460   -2.4720   -3.2890 hn        1 MOL      0.313042
     62 N7         -6.2830   -2.5130    0.5180 n         1 MOL     -0.317596
     63 C20        -6.3220   -3.4610    1.6090 c3        1 MOL     -0.097575
     64 C21        -5.0710   -4.3460    1.7750 c         1 MOL      0.458054
     65 O12        -5.0730   -5.2070    2.6380 o         1 MOL     -0.573097
     66 H26        -6.3700   -1.5310    0.7320 hn        1 MOL      0.284973
     67 H27        -7.1630   -4.1500    1.6140 h1        1 MOL      0.084012
     68 H28        -6.4890   -2.9340    2.5450 h1        1 MOL      0.084012
     69 N8         -3.9690   -4.0240    1.0470 n         1 MOL      0.010949
     70 C22        -2.5990   -4.6590    1.1500 c3        1 MOL     -0.237371
     71 C23        -1.4610   -3.6900    1.2860 c         1 MOL      0.625929
     72 O13        -1.5240   -2.5870    0.7530 o         1 MOL     -0.534734
     73 C24        -2.3950   -5.5620   -0.1050 c3        1 MOL      0.506041
     74 C25        -2.9990   -6.9770   -0.0890 c3        1 MOL     -0.471661
     75 O14        -2.7730   -4.9140   -1.3120 oh        1 MOL     -0.578548
     76 H29        -3.9840   -3.1710    0.5040 hn        1 MOL     -0.092630
     77 H30        -2.6250   -5.3380    2.0040 h1        1 MOL      0.095051
     78 H31        -1.3410   -5.7730   -0.3110 h1        1 MOL     -0.034745
     79 H32        -2.3900   -4.0320   -1.2740 ho        1 MOL      0.338101
     80 H33        -4.0200   -7.0280    0.2860 hc        1 MOL      0.117357
     81 H34        -3.0690   -7.3050   -1.1280 hc        1 MOL      0.117357
     82 H35        -2.4630   -7.6320    0.5900 hc        1 MOL      0.117357
     83 N9         -0.3620   -3.9540    2.0460 n         1 MOL     -0.548835
     84 C26         0.9130   -3.1110    1.9010 c3        1 MOL      0.089026
     85 C27         1.5980   -3.1190    0.5150 c         1 MOL      0.482300
     86 O15         2.0000   -4.2010    0.0540 o         1 MOL     -0.574529
     87 C28         1.8170   -3.3330    3.1230 c3        1 MOL      0.089345
     88 C29         1.2870   -2.6610    4.4080 c3        1 MOL      0.192588
     89 C30         3.2640   -2.7260    2.9510 c3        1 MOL     -0.369855
     90 C31         1.9140   -3.2190    5.6820 c3        1 MOL     -0.088532
     91 H36        -0.2570   -4.9280    2.2820 hn        1 MOL      0.269934
     92 H37         0.5580   -2.0860    2.0350 h1        1 MOL      0.032500
     93 H38         2.0010   -4.3860    3.3560 hc        1 MOL      0.023130
     94 H39         0.2250   -2.9090    4.4100 hc        1 MOL     -0.061122
     95 H40         1.2980   -1.5760    4.3420 hc        1 MOL     -0.061122
     96 H41         3.3780   -1.7780    2.4330 hc        1 MOL      0.070607
     97 H42         3.7090   -2.4910    3.9250 hc        1 MOL      0.070607
     98 H43         3.9410   -3.4640    2.5100 hc        1 MOL      0.070607
     99 H44         1.9440   -4.3060    5.6910 hc        1 MOL      0.010041
    100 H45         2.9450   -2.8580    5.8220 hc        1 MOL      0.010041
    101 H46         1.3430   -2.9100    6.5570 hc        1 MOL      0.010041
    102 N10         1.8380   -1.9420   -0.1070 n         1 MOL     -0.214211
    103 C32         2.5990   -1.8020   -1.3240 c3        1 MOL      0.232567
    104 C33         4.0270   -1.3240   -1.0780 c         1 MOL      0.227299
    105 O16         4.2180   -0.7730   -0.0090 o         1 MOL     -0.232837
    106 C34         1.9590   -0.9530   -2.3740 c3        1 MOL     -0.240298
    107 C35         0.5310   -1.3190   -2.7250 c         1 MOL      0.725183
    108 O17        -0.4350   -1.2480   -1.9210 o         1 MOL     -0.675131
    109 O18         0.4240   -1.9200   -3.7730 o         1 MOL     -0.675131
    110 H47         1.4550   -1.1360    0.3670 hn        1 MOL      0.085991
    111 H48         2.7350   -2.7890   -1.7700 h1        1 MOL      0.030081
    112 H49         2.5480   -0.8140   -3.2900 hc        1 MOL      0.043925
    113 H50         1.9240    0.0300   -1.9030 hc        1 MOL      0.043925
    114 N11         4.9790   -1.4560   -1.9330 n         1 MOL     -0.455850
    115 C36         6.3830   -1.1180   -1.6690 c3        1 MOL      0.174030
    116 C37         6.6220    0.2820   -1.1540 c         1 MOL      0.414853
    117 O19         7.3160    0.3760   -0.1520 o         1 MOL     -0.482589
    118 C38         7.3090   -1.4520   -2.8940 c3        1 MOL     -0.113023
    119 C39         8.7170   -1.5910   -2.4800 ca        1 MOL     -0.026193
    120 C40         9.5370   -0.4600   -2.4920 ca        1 MOL     -0.079343
    121 C41         9.1270   -2.7520   -1.8700 ca        1 MOL     -0.079343
    122 C42        10.8080   -0.5460   -1.8980 ca        1 MOL     -0.194654
    123 C43        10.3920   -2.8810   -1.2070 ca        1 MOL     -0.194654
    124 C44        11.1750   -1.7340   -1.1960 ca        1 MOL     -0.028653
    125 H51         4.6700   -1.9500   -2.7530 hn        1 MOL      0.288810
    126 H52         6.7860   -1.8540   -0.9690 h1        1 MOL      0.082634
    127 H53         7.2000   -0.5690   -3.5310 hc        1 MOL      0.057300
    128 H54         7.0650   -2.2470   -3.5870 hc        1 MOL      0.057300
    129 H55         9.2740    0.4720   -2.9870 ha        1 MOL      0.101374
    130 H56         8.4560   -3.5950   -1.7690 ha        1 MOL      0.101374
    131 H57        11.5220    0.2710   -1.9150 ha        1 MOL      0.135623
    132 H58        10.6480   -3.7310   -0.6000 ha        1 MOL      0.135623
    133 H59        12.1260   -1.7370   -0.6860 ha        1 MOL      0.079159
    134 N12         6.0050    1.3790   -1.6810 n         1 MOL     -0.135556
    135 C45         6.0860    2.7770   -1.2670 c3        1 MOL     -0.026309
    136 C46         5.5430    2.8770    0.1940 c         1 MOL      0.316374
    137 O20         6.0080    3.6780    0.9820 o         1 MOL     -0.489922
    138 C47         5.3830    3.6010   -2.3170 c3        1 MOL      0.077879
    139 C48         5.1990    2.7090   -3.5170 c3        1 MOL     -0.041010
    140 C49         5.1660    1.3330   -2.8810 c3        1 MOL     -0.089576
    141 H60         7.1580    2.9930   -1.1850 h1        1 MOL      0.060435
    142 H61         4.4180    3.8630   -1.8760 hc        1 MOL      0.009100
    143 H62         5.8960    4.5180   -2.6130 hc        1 MOL      0.009100
    144 H63         4.3150    2.9590   -4.1060 hc        1 MOL      0.029825
    145 H64         6.0720    2.7330   -4.1730 hc        1 MOL      0.029825
    146 H65         4.1830    1.1690   -2.4410 h1        1 MOL      0.063780
    147 H66         5.3670    0.5730   -3.6360 h1        1 MOL      0.063780
    148 N13         4.5170    2.0690    0.5040 n         1 MOL     -0.034869
    149 C50         3.9860    2.0230    1.8190 c3        1 MOL     -0.119035
    150 C51         4.8870    1.1960    2.7420 c         1 MOL      0.420721
    151 O21         5.0930    1.5220    3.9060 o         1 MOL     -0.567021
    152 C52         2.6270    1.4100    1.7200 c3        1 MOL      0.027370
    153 C53         1.6730    2.0400    0.7790 c3        1 MOL     -0.316855
    154 C54         0.2770    1.4580    0.7330 c         1 MOL      0.400086
    155 O22        -0.6420    2.0740    0.1040 o         1 MOL     -0.523549
    156 O23         0.0960    0.2420    1.0830 o         1 MOL     -0.523549
    157 H67         3.9870    1.6380   -0.2410 hn        1 MOL      0.153935
    158 H68         3.8620    3.0520    2.1610 h1        1 MOL      0.103109
    159 H69         2.2530    1.4130    2.7420 hc        1 MOL      0.048791
    160 H70         2.7290    0.3840    1.3790 hc        1 MOL      0.048791
    161 H71         1.9950    2.0340   -0.2590 hc        1 MOL      0.122349
    162 H72         1.6850    3.0790    1.1070 hc        1 MOL      0.122349
    163 N14         5.4260    0.0310    2.3310 n         1 MOL      0.033367
    164 C55         6.4100   -0.7210    3.0760 c3        1 MOL     -0.199549
    165 H73         5.9690   -1.6590    3.4160 h1        1 MOL      0.072228
    166 H74         7.2670   -0.9340    2.4370 h1        1 MOL      0.072228
    167 H75         6.7350   -0.1400    3.9400 h1        1 MOL      0.072228
    168 H76         5.2700   -0.1670    1.3470 hn        1 MOL     -0.007271
    169 Ca1        -2.0350   -0.1440   -0.4070 Ca        1 MOL      1.694446
    170 O24        -1.6980   -0.2500    2.8060 oh        1 MOL     -0.739973
    171 H77        -0.8160   -0.1430    2.4640 ho        1 MOL      0.365619
    172 H78        -1.5940   -0.2270    3.7610 ho        1 MOL      0.365619
    173 O25        -3.7800   -0.9540    1.4530 oh        1 MOL     -0.739973
    174 H79        -3.0990   -0.8640    2.1120 ho        1 MOL      0.365619
    175 H80        -4.5660   -0.5950    1.8580 ho        1 MOL      0.365619
@<TRIPOS>BOND
     1    1    2 1   
     2    1    4 1   
     3    1    5 1   
     4    1    6 1   
     5    2    3 2   
     6    2    7 1   
     7    7    8 1   
     8    7   15 1   
     9    8    9 1   
    10    8   11 1   
    11    8   16 1   
    12    9   10 2   
    13    9   19 1   
    14   11   12 1   
    15   11   17 1   
    16   11   18 1   
    17   12   13 1   
    18   12   14 1   
    19   19   20 1   
    20   19   24 1   
    21   20   21 1   
    22   20   23 1   
    23   20   25 1   
    24   21   22 2   
    25   21   29 1   
    26   23   26 1   
    27   23   27 1   
    28   23   28 1   
    29   29   30 1   
    30   29   37 1   
    31   30   31 1   
    32   30   33 1   
    33   30   38 1   
    34   31   32 2   
    35   31   41 1   
    36   33   34 1   
    37   33   39 1   
    38   33   40 1   
    39   34   35 1   
    40   34   36 1   
    41   41   42 1   
    42   41   45 1   
    43   42   43 1   
    44   42   46 1   
    45   42   47 1   
    46   43   44 2   
    47   43   48 1   
    48   48   49 1   
    49   48   56 1   
    50   49   50 1   
    51   49   52 1   
    52   49   57 1   
    53   50   51 2   
    54   50   62 1   
    55   52   53 1   
    56   52   58 1   
    57   52   59 1   
    58   53   54 1   
    59   53   55 2   
    60   54   60 1   
    61   54   61 1   
    62   62   63 1   
    63   62   66 1   
    64   63   64 1   
    65   63   67 1   
    66   63   68 1   
    67   64   65 2   
    68   64   69 1   
    69   69   70 1   
    70   69   76 1   
    71   70   71 1   
    72   70   73 1   
    73   70   77 1   
    74   71   72 2   
    75   71   83 1   
    76   73   74 1   
    77   73   75 1   
    78   73   78 1   
    79   74   80 1   
    80   74   81 1   
    81   74   82 1   
    82   75   79 1   
    83   83   84 1   
    84   83   91 1   
    85   84   85 1   
    86   84   87 1   
    87   84   92 1   
    88   85   86 2   
    89   85  102 1   
    90   87   88 1   
    91   87   89 1   
    92   87   93 1   
    93   88   90 1   
    94   88   94 1   
    95   88   95 1   
    96   89   96 1   
    97   89   97 1   
    98   89   98 1   
    99   90   99 1   
   100   90  100 1   
   101   90  101 1   
   102  102  103 1   
   103  102  110 1   
   104  103  104 1   
   105  103  106 1   
   106  103  111 1   
   107  104  105 2   
   108  104  114 1   
   109  106  107 1   
   110  106  112 1   
   111  106  113 1   
   112  107  108 1   
   113  107  109 1   
   114  114  115 1   
   115  114  125 1   
   116  115  116 1   
   117  115  118 1   
   118  115  126 1   
   119  116  117 2   
   120  116  134 1   
   121  118  119 1   
   122  118  127 1   
   123  118  128 1   
   124  119  120 ar  
   125  119  121 ar  
   126  120  122 ar  
   127  120  129 1   
   128  121  123 ar  
   129  121  130 1   
   130  122  124 ar  
   131  122  131 1   
   132  123  124 ar  
   133  123  132 1   
   134  124  133 1   
   135  134  135 1   
   136  134  140 1   
   137  135  136 1   
   138  135  138 1   
   139  135  141 1   
   140  136  137 2   
   141  136  148 1   
   142  138  139 1   
   143  138  142 1   
   144  138  143 1   
   145  139  140 1   
   146  139  144 1   
   147  139  145 1   
   148  140  146 1   
   149  140  147 1   
   150  148  149 1   
   151  148  157 1   
   152  149  150 1   
   153  149  152 1   
   154  149  158 1   
   155  150  151 2   
   156  150  163 1   
   157  152  153 1   
   158  152  159 1   
   159  152  160 1   
   160  153  154 1   
   161  153  161 1   
   162  153  162 1   
   163  154  155 1   
   164  154  156 1   
   165  163  164 1   
   166  163  168 1   
   167  164  165 1   
   168  164  166 1   
   169  164  167 1   
   170  170  171 1   
   171  170  172 1   
   172  173  174 1   
   173  173  175 1   
@<TRIPOS>SUBSTRUCTURE
     1 MOL         1 TEMP              0 ****  ****    0 ROOT
