@<TRIPOS>MOLECULE
MOL
  179   176     1     0     0
SMALL
resp


@<TRIPOS>ATOM
      1 C1          2.3820    3.4390    4.1340 c3        1 MOL     -0.394819
      2 C2          1.6680    3.0030    2.9000 c         1 MOL      0.678903
      3 O1          2.2360    2.9370    1.8200 o         1 MOL     -0.557580
      4 H1          1.8970    4.3280    4.5390 hc        1 MOL      0.094615
      5 H2          2.3510    2.6400    4.8750 hc        1 MOL      0.094615
      6 H3          3.4190    3.6710    3.8920 hc        1 MOL      0.094615
      7 N1          0.3600    2.8330    3.0550 n         1 MOL     -0.604351
      8 C3         -0.5900    2.6320    1.9610 c3        1 MOL      0.308165
      9 C4         -1.1160    3.9830    1.5200 c         1 MOL      0.420815
     10 O2         -2.1880    4.4580    1.8240 o         1 MOL     -0.432057
     11 C5         -1.6680    1.6990    2.4580 c3        1 MOL     -0.128408
     12 C6         -2.8090    1.4660    1.3850 c         1 MOL      0.455158
     13 O3         -3.9930    1.2410    1.8040 o         1 MOL     -0.610891
     14 O4         -2.5050    1.4670    0.1560 o         1 MOL     -0.610891
     15 H4          0.0700    2.8110    4.0190 hn        1 MOL      0.315505
     16 H5         -0.0690    2.1290    1.1430 h1        1 MOL      0.023156
     17 H6         -2.0290    2.0300    3.4280 hc        1 MOL      0.038072
     18 H7         -1.1650    0.7350    2.4970 hc        1 MOL      0.038072
     19 N2         -0.2290    4.7410    0.8310 n         1 MOL     -0.416797
     20 C7         -0.4300    6.0910    0.2740 c3        1 MOL      0.009978
     21 C8         -1.5360    6.0270   -0.7960 c         1 MOL      0.418529
     22 O5         -2.2880    7.0150   -0.9430 o         1 MOL     -0.551414
     23 C9          0.8630    6.8060   -0.2620 c3        1 MOL     -0.272613
     24 C10         2.0190    6.9850    0.6520 c3        1 MOL      0.322060
     25 C11         3.2320    7.7550    0.0600 c3        1 MOL     -0.115439
     26 C12         4.4400    7.6070    1.0860 c3        1 MOL     -0.075004
     27 N3          4.0810    8.1650    2.4260 n4        1 MOL     -0.475800
     28 H8          0.7410    4.4580    0.8620 hn        1 MOL      0.278555
     29 H9         -0.8050    6.6890    1.0990 h1        1 MOL      0.083123
     30 H10         0.5940    7.7740   -0.6800 hc        1 MOL      0.098757
     31 H11         1.2960    6.2570   -1.1030 hc        1 MOL      0.098757
     32 H12         2.3550    5.9890    0.9290 hc        1 MOL     -0.055738
     33 H13         1.6520    7.4580    1.5640 hc        1 MOL     -0.055738
     34 H14         2.9660    8.7960   -0.1560 hc        1 MOL      0.060956
     35 H15         3.5770    7.2830   -0.8570 hc        1 MOL      0.060956
     36 H16         5.3720    7.9630    0.6470 hx        1 MOL      0.142440
     37 H17         4.6180    6.5270    1.1090 hx        1 MOL      0.142440
     38 H18         4.9490    8.1190    2.9490 hn        1 MOL      0.360082
     39 H19         3.8680    9.1480    2.3730 hn        1 MOL      0.360082
     40 H20         3.4320    7.6030    2.9630 hn        1 MOL      0.360082
     41 N4         -1.6790    4.9690   -1.5640 n         1 MOL     -0.196304
     42 C13        -2.8230    4.9100   -2.4820 c3        1 MOL     -0.004301
     43 C14        -4.1210    4.5510   -1.8180 c         1 MOL      0.450849
     44 O6         -5.1370    4.7360   -2.4020 o         1 MOL     -0.560949
     45 C15        -2.5330    3.7620   -3.4850 c3        1 MOL     -0.297658
     46 C16        -2.1000    2.4570   -2.7950 c         1 MOL      0.723461
     47 O7         -0.9320    2.3700   -2.3170 o         1 MOL     -0.652427
     48 O8         -2.7400    1.4610   -3.0420 o         1 MOL     -0.652427
     49 H21        -1.1070    4.1490   -1.4540 hn        1 MOL      0.144305
     50 H22        -2.8880    5.8630   -3.0010 h1        1 MOL      0.107463
     51 H23        -1.6680    4.0270   -4.1000 hc        1 MOL      0.088144
     52 H24        -3.4490    3.6220   -4.0750 hc        1 MOL      0.088144
     53 N5         -4.1070    4.0370   -0.6190 n         1 MOL      0.020651
     54 C17        -5.2550    3.6740    0.2540 c3        1 MOL     -0.234151
     55 C18        -6.0390    2.4300   -0.1550 c         1 MOL      0.550233
     56 O9         -7.1790    2.3120    0.3160 o         1 MOL     -0.576684
     57 H25        -3.2060    4.0210   -0.1470 hn        1 MOL      0.024340
     58 H26        -5.9640    4.5040    0.2900 h1        1 MOL      0.123552
     59 H27        -4.9260    3.5630    1.2900 h1        1 MOL      0.123552
     60 N6         -5.5110    1.4640   -0.9270 n         1 MOL     -0.167322
     61 C19        -6.3290    0.2580   -1.2470 c3        1 MOL     -0.227792
     62 C20        -6.5470   -0.7750   -0.1140 c         1 MOL      0.363958
     63 O10        -7.2400   -1.7800   -0.3010 o         1 MOL     -0.473016
     64 C21        -5.9190   -0.4320   -2.5960 c3        1 MOL     -0.043690
     65 C22        -4.6490   -1.2900   -2.5180 c         1 MOL      0.459119
     66 N7         -4.5800   -2.4080   -3.2620 n         1 MOL     -0.518730
     67 O11        -3.6860   -1.0760   -1.8210 o         1 MOL     -0.542910
     68 H28        -4.5480    1.4330   -1.2200 hn        1 MOL      0.080385
     69 H29        -7.3220    0.6210   -1.5210 h1        1 MOL      0.156694
     70 H30        -5.8260    0.1960   -3.4790 hc        1 MOL      0.074442
     71 H31        -6.7530   -1.0990   -2.8510 hc        1 MOL      0.074442
     72 H32        -5.2920   -2.5840   -3.9540 hn        1 MOL      0.265316
     73 H33        -3.6600   -2.7600   -3.4860 hn        1 MOL      0.265316
     74 N8         -5.9780   -0.5320    1.0880 n         1 MOL     -0.022753
     75 C23        -6.1110   -1.4180    2.2270 c3        1 MOL     -0.465232
     76 C24        -4.9630   -2.4540    2.3850 c         1 MOL      0.753240
     77 O12        -5.0930   -3.3490    3.1970 o         1 MOL     -0.584147
     78 H34        -5.4240    0.2880    1.3130 hn        1 MOL      0.249951
     79 H35        -7.0450   -1.9430    2.0700 h1        1 MOL      0.159232
     80 H36        -6.0480   -0.7200    3.0720 h1        1 MOL      0.159232
     81 N9         -3.8840   -2.2830    1.6370 n         1 MOL     -0.562799
     82 C25        -2.7430   -3.1210    1.5910 c3        1 MOL      0.256628
     83 C26        -1.4470   -2.3700    1.4390 c         1 MOL      0.373553
     84 O13        -1.3490   -1.4140    0.6390 o         1 MOL     -0.468503
     85 C27        -2.8660   -4.1760    0.4310 c3        1 MOL      0.112177
     86 C28        -4.0400   -5.1100    0.5030 ca        1 MOL     -0.000563
     87 C29        -4.0750   -6.2390    1.2920 ca        1 MOL     -0.161642
     88 C30        -5.1210   -4.8520   -0.4000 ca        1 MOL     -0.161642
     89 C31        -5.2050   -7.0810    1.2570 ca        1 MOL     -0.286011
     90 C32        -6.2540   -5.6610   -0.5040 ca        1 MOL     -0.286011
     91 C33        -6.2810   -6.7530    0.3710 ca        1 MOL      0.389607
     92 O14        -7.3780   -7.5260    0.3510 oh        1 MOL     -0.478511
     93 H37        -3.9530   -1.5160    0.9840 hn        1 MOL      0.336683
     94 H38        -2.7040   -3.7170    2.5090 h1        1 MOL     -0.012530
     95 H39        -1.9900   -4.8180    0.5250 hc        1 MOL     -0.043774
     96 H40        -2.7650   -3.6170   -0.4990 hc        1 MOL     -0.043774
     97 H41        -3.3200   -6.4670    2.0210 ha        1 MOL      0.129918
     98 H42        -5.0660   -3.9140   -0.9210 ha        1 MOL      0.129918
     99 H43        -5.2600   -7.9330    1.9090 ha        1 MOL      0.158419
    100 H44        -7.0990   -5.5010   -1.1660 ha        1 MOL      0.158419
    101 H45        -7.3290   -8.1750    1.0530 ho        1 MOL      0.343285
    102 N10        -0.4330   -2.9680    2.1140 n         1 MOL     -0.399852
    103 C34         0.9840   -2.5460    2.0530 c3        1 MOL      0.011044
    104 C35         1.8240   -3.5770    1.3120 c         1 MOL      0.389562
    105 O15         1.9020   -4.7170    1.7230 o         1 MOL     -0.553470
    106 C36         1.5760   -2.2200    3.4200 c3        1 MOL      0.147405
    107 C37         0.7860   -1.0610    4.1770 c3        1 MOL      0.010721
    108 C38         3.0490   -1.8260    3.2620 c3        1 MOL     -0.006136
    109 C39         1.2630   -1.0150    5.6690 c3        1 MOL     -0.226498
    110 H46        -0.6250   -3.6480    2.8470 hn        1 MOL      0.291584
    111 H47         1.0500   -1.6650    1.4230 h1        1 MOL      0.085470
    112 H48         1.5400   -3.1020    4.0620 hc        1 MOL      0.007439
    113 H49        -0.2970   -1.1450    4.1690 hc        1 MOL      0.004678
    114 H50         1.0460   -0.1320    3.6610 hc        1 MOL      0.004678
    115 H51         3.5610   -2.6620    2.7800 hc        1 MOL     -0.007697
    116 H52         3.2130   -0.9590    2.6240 hc        1 MOL     -0.007697
    117 H53         3.5580   -1.7520    4.2280 hc        1 MOL     -0.007697
    118 H54         2.3210   -0.8030    5.7620 hc        1 MOL      0.056529
    119 H55         0.8470   -0.1550    6.1940 hc        1 MOL      0.056529
    120 H56         1.0660   -1.9560    6.1860 hc        1 MOL      0.056529
    121 N11         2.4770   -3.1560    0.2510 n         1 MOL     -0.038899
    122 C40         3.3790   -3.9240   -0.6470 c3        1 MOL     -0.002739
    123 C41         4.8240   -3.6690   -0.2480 c         1 MOL      0.438492
    124 O16         5.1530   -2.6430    0.3640 o         1 MOL     -0.362843
    125 C42         3.0300   -3.6150   -2.1350 c3        1 MOL     -0.146082
    126 O17         3.6560   -2.4560   -2.5340 oh        1 MOL     -0.479600
    127 H57         2.2580   -2.2150   -0.0430 hn        1 MOL      0.095472
    128 H58         3.0810   -4.9760   -0.5600 h1        1 MOL      0.056390
    129 H59         1.9680   -3.6310   -2.3760 h1        1 MOL      0.097081
    130 H60         3.4510   -4.4440   -2.6950 h1        1 MOL      0.097081
    131 H61         3.3690   -2.2810   -3.4280 ho        1 MOL      0.402326
    132 N12         5.7260   -4.5760   -0.6060 n         1 MOL     -0.520602
    133 C43         7.1440   -4.5790   -0.2570 c3        1 MOL      0.285663
    134 C44         7.8870   -3.3070   -0.8590 c         1 MOL      0.419127
    135 O18         8.6760   -2.7570   -0.1010 o         1 MOL     -0.509254
    136 C45         7.7620   -5.8830   -0.6730 c3        1 MOL     -0.184260
    137 H62         5.3420   -5.3420   -1.1460 hn        1 MOL      0.310303
    138 H63         7.3000   -4.4640    0.8140 h1        1 MOL      0.043829
    139 H64         7.7580   -5.8940   -1.7590 hc        1 MOL      0.049396
    140 H65         8.7660   -5.9110   -0.2450 hc        1 MOL      0.049396
    141 H66         7.1970   -6.7610   -0.3670 hc        1 MOL      0.049396
    142 N13         7.6200   -2.9120   -2.0650 n         1 MOL     -0.380633
    143 C46         7.9840   -1.5680   -2.5580 c3        1 MOL      0.159536
    144 C47         7.4250   -0.3880   -1.8390 c         1 MOL      0.288593
    145 O19         8.0820    0.6500   -1.6840 o         1 MOL     -0.497947
    146 C48         7.7110   -1.5440   -4.0200 c3        1 MOL     -0.256238
    147 H67         6.9850   -3.4240   -2.6770 hn        1 MOL      0.263838
    148 H68         9.0600   -1.4780   -2.4500 h1        1 MOL      0.085702
    149 H69         6.6360   -1.6150   -4.1130 hc        1 MOL      0.071225
    150 H70         7.9120   -0.5470   -4.4140 hc        1 MOL      0.071225
    151 H71         8.2180   -2.3160   -4.5980 hc        1 MOL      0.071225
    152 N14         6.1490   -0.3880   -1.4460 n         1 MOL      0.001882
    153 C49         5.4400    0.6570   -0.6860 c3        1 MOL     -0.072024
    154 C50         6.0280    0.9110    0.7570 c         1 MOL      0.401543
    155 O20         6.2610    2.1020    1.0480 o         1 MOL     -0.568847
    156 C51         3.9610    0.2770   -0.6120 c3        1 MOL     -0.021841
    157 C52         3.1560    0.7960   -1.8590 c3        1 MOL     -0.064246
    158 C53         1.7220    0.3930   -1.7470 c         1 MOL      0.743881
    159 O21         1.0360    0.1090   -2.7860 o         1 MOL     -0.769353
    160 O22         1.0890    0.3600   -0.6300 o         1 MOL     -0.769353
    161 H72         5.6850   -1.2780   -1.4890 hn        1 MOL      0.026166
    162 H73         5.3850    1.6280   -1.1690 h1        1 MOL      0.078397
    163 H74         3.5130    0.8890    0.1760 hc        1 MOL      0.052342
    164 H75         3.7950   -0.7760   -0.3710 hc        1 MOL      0.052342
    165 H76         3.6330    0.3880   -2.7550 hc        1 MOL      0.013314
    166 H77         3.2010    1.8790   -1.9410 hc        1 MOL      0.013314
    167 N15         6.3340   -0.1000    1.4960 n         1 MOL      0.038977
    168 C54         6.9610   -0.0030    2.7880 c3        1 MOL     -0.329437
    169 H78         6.3870    0.6750    3.4190 h1        1 MOL      0.117533
    170 H79         6.9940   -0.9890    3.2510 h1        1 MOL      0.117533
    171 H80         7.9750    0.3790    2.6720 h1        1 MOL      0.117533
    172 H81         5.9450   -0.9520    1.1230 hn        1 MOL      0.055709
    173 Ca1        -1.2610   -0.0780   -1.5300 Ca        1 MOL      1.595763
    174 O23        -0.5390   -2.5590   -2.2120 oh        1 MOL     -0.687002
    175 H82        -0.9500   -2.5000   -3.0810 ho        1 MOL      0.358557
    176 H83        -0.3480   -3.4920   -2.1000 ho        1 MOL      0.358557
    177 O24        -1.7090   -0.7280   -4.3810 oh        1 MOL     -0.687002
    178 H84        -2.5440   -0.2670   -4.5070 ho        1 MOL      0.358557
    179 H85        -1.5840   -1.2260   -5.1840 ho        1 MOL      0.358557
@<TRIPOS>BOND
     1    1    2 1   
     2    1    4 1   
     3    1    5 1   
     4    1    6 1   
     5    2    3 2   
     6    2    7 1   
     7    7    8 1   
     8    7   15 1   
     9    8    9 1   
    10    8   11 1   
    11    8   16 1   
    12    9   10 2   
    13    9   19 1   
    14   11   12 1   
    15   11   17 1   
    16   11   18 1   
    17   12   13 1   
    18   12   14 1   
    19   19   20 1   
    20   19   28 1   
    21   20   21 1   
    22   20   23 1   
    23   20   29 1   
    24   21   22 2   
    25   21   41 1   
    26   23   24 1   
    27   23   30 1   
    28   23   31 1   
    29   24   25 1   
    30   24   32 1   
    31   24   33 1   
    32   25   26 1   
    33   25   34 1   
    34   25   35 1   
    35   26   27 1   
    36   26   36 1   
    37   26   37 1   
    38   27   38 1   
    39   27   39 1   
    40   27   40 1   
    41   41   42 1   
    42   41   49 1   
    43   42   43 1   
    44   42   45 1   
    45   42   50 1   
    46   43   44 2   
    47   43   53 1   
    48   45   46 1   
    49   45   51 1   
    50   45   52 1   
    51   46   47 1   
    52   46   48 1   
    53   53   54 1   
    54   53   57 1   
    55   54   55 1   
    56   54   58 1   
    57   54   59 1   
    58   55   56 2   
    59   55   60 1   
    60   60   61 1   
    61   60   68 1   
    62   61   62 1   
    63   61   64 1   
    64   61   69 1   
    65   62   63 2   
    66   62   74 1   
    67   64   65 1   
    68   64   70 1   
    69   64   71 1   
    70   65   66 1   
    71   65   67 2   
    72   66   72 1   
    73   66   73 1   
    74   74   75 1   
    75   74   78 1   
    76   75   76 1   
    77   75   79 1   
    78   75   80 1   
    79   76   77 2   
    80   76   81 1   
    81   81   82 1   
    82   81   93 1   
    83   82   83 1   
    84   82   85 1   
    85   82   94 1   
    86   83   84 2   
    87   83  102 1   
    88   85   86 1   
    89   85   95 1   
    90   85   96 1   
    91   86   87 ar  
    92   86   88 ar  
    93   87   89 ar  
    94   87   97 1   
    95   88   90 ar  
    96   88   98 1   
    97   89   91 ar  
    98   89   99 1   
    99   90   91 ar  
   100   90  100 1   
   101   91   92 1   
   102   92  101 1   
   103  102  103 1   
   104  102  110 1   
   105  103  104 1   
   106  103  106 1   
   107  103  111 1   
   108  104  105 2   
   109  104  121 1   
   110  106  107 1   
   111  106  108 1   
   112  106  112 1   
   113  107  109 1   
   114  107  113 1   
   115  107  114 1   
   116  108  115 1   
   117  108  116 1   
   118  108  117 1   
   119  109  118 1   
   120  109  119 1   
   121  109  120 1   
   122  121  122 1   
   123  121  127 1   
   124  122  123 1   
   125  122  125 1   
   126  122  128 1   
   127  123  124 2   
   128  123  132 1   
   129  125  126 1   
   130  125  129 1   
   131  125  130 1   
   132  126  131 1   
   133  132  133 1   
   134  132  137 1   
   135  133  134 1   
   136  133  136 1   
   137  133  138 1   
   138  134  135 2   
   139  134  142 1   
   140  136  139 1   
   141  136  140 1   
   142  136  141 1   
   143  142  143 1   
   144  142  147 1   
   145  143  144 1   
   146  143  146 1   
   147  143  148 1   
   148  144  145 2   
   149  144  152 1   
   150  146  149 1   
   151  146  150 1   
   152  146  151 1   
   153  152  153 1   
   154  152  161 1   
   155  153  154 1   
   156  153  156 1   
   157  153  162 1   
   158  154  155 2   
   159  154  167 1   
   160  156  157 1   
   161  156  163 1   
   162  156  164 1   
   163  157  158 1   
   164  157  165 1   
   165  157  166 1   
   166  158  159 1   
   167  158  160 1   
   168  167  168 1   
   169  167  172 1   
   170  168  169 1   
   171  168  170 1   
   172  168  171 1   
   173  174  175 1   
   174  174  176 1   
   175  177  178 1   
   176  177  179 1   
@<TRIPOS>SUBSTRUCTURE
     1 MOL         1 TEMP              0 ****  ****    0 ROOT
