@<TRIPOS>MOLECULE
MOL
  189   185     1     0     0
SMALL
resp


@<TRIPOS>ATOM
      1 C1         -0.0840    3.9250    4.5050 c3        1 MOL     -0.337006
      2 C2         -0.7440    3.3520    3.2730 c         1 MOL      0.743015
      3 O1         -0.1560    3.5200    2.1680 o         1 MOL     -0.715171
      4 H1          0.7300    4.5860    4.2060 hc        1 MOL      0.088183
      5 H2         -0.8170    4.4900    5.0800 hc        1 MOL      0.088183
      6 H3          0.3120    3.1150    5.1160 hc        1 MOL      0.088183
      7 N1         -1.8790    2.6370    3.3640 n         1 MOL     -0.585990
      8 C3         -2.4990    2.0370    2.1850 c3        1 MOL      0.301752
      9 C4         -3.0750    3.0140    1.1580 c         1 MOL      0.275871
     10 O2         -4.2250    3.4750    1.3250 o         1 MOL     -0.498322
     11 C5         -3.5870    0.9670    2.6680 c3        1 MOL     -0.246084
     12 C6         -4.1630    0.1070    1.5050 c         1 MOL      0.725402
     13 O3         -3.6930    0.1680    0.3710 o         1 MOL     -0.689850
     14 O4         -5.0660   -0.7630    1.7090 o         1 MOL     -0.689850
     15 H4         -2.3800    2.4360    4.2140 hn        1 MOL      0.323037
     16 H5         -1.8090    1.4910    1.5320 h1        1 MOL      0.007365
     17 H6         -4.4180    1.4210    3.2090 hc        1 MOL      0.062733
     18 H7         -3.0690    0.2920    3.3490 hc        1 MOL      0.062733
     19 N2         -2.2180    3.5190    0.2150 n         1 MOL     -0.163874
     20 C7         -2.3800    4.8040   -0.5570 c3        1 MOL     -0.109501
     21 C8         -3.1590    4.5670   -1.8610 c         1 MOL      0.461479
     22 O5         -3.4910    5.4670   -2.6000 o         1 MOL     -0.534260
     23 C9         -0.9720    5.4470   -0.8880 c3        1 MOL      0.096227
     24 C10        -0.9380    6.9540   -0.8170 c3        1 MOL     -0.184455
     25 C11        -1.5140    7.6200    0.5010 c3        1 MOL      0.001060
     26 C12        -0.6520    7.0050    1.6210 c3        1 MOL      0.086230
     27 N3         -0.5610    7.8430    2.8670 n4        1 MOL     -0.434517
     28 H8         -1.2800    3.1540    0.1980 hn        1 MOL      0.297192
     29 H9         -2.8960    5.4740    0.1290 h1        1 MOL      0.095906
     30 H10        -0.6510    5.1190   -1.8780 hc        1 MOL      0.055111
     31 H11        -0.1670    5.1270   -0.2130 hc        1 MOL      0.055111
     32 H12        -1.6430    7.2520   -1.5850 hc        1 MOL      0.052290
     33 H13         0.0440    7.3900   -1.0110 hc        1 MOL      0.052290
     34 H14        -2.5710    7.4500    0.7120 hc        1 MOL      0.033059
     35 H15        -1.3660    8.7020    0.5700 hc        1 MOL      0.033059
     36 H16         0.3680    6.8690    1.2340 hx        1 MOL      0.078981
     37 H17        -1.0520    6.0350    1.8950 hx        1 MOL      0.078981
     38 H18        -0.0490    7.4000    3.6200 hn        1 MOL      0.332045
     39 H19         0.0220    8.6560    2.6990 hn        1 MOL      0.332045
     40 H20        -1.4650    8.1570    3.1590 hn        1 MOL      0.332045
     41 N4         -3.6570    3.3080   -2.0700 n         1 MOL     -0.123729
     42 C13        -4.7100    3.0480   -3.0590 c3        1 MOL      0.019023
     43 C14        -5.7990    2.2080   -2.4260 c         1 MOL      0.267421
     44 O6         -6.8150    1.8980   -3.1260 o         1 MOL     -0.495848
     45 C15        -4.0680    2.3690   -4.3150 c3        1 MOL     -0.165351
     46 C16        -3.0330    1.2830   -4.0210 c         1 MOL      0.746988
     47 O7         -2.1020    1.3130   -4.8370 o         1 MOL     -0.694644
     48 O8         -2.9860    0.6360   -2.9320 o         1 MOL     -0.694644
     49 H21        -3.3680    2.5500   -1.4650 hn        1 MOL      0.042222
     50 H22        -5.1880    3.9760   -3.3830 h1        1 MOL      0.100070
     51 H23        -3.6410    3.1210   -4.9650 hc        1 MOL      0.051315
     52 H24        -4.9070    1.8820   -4.8070 hc        1 MOL      0.051315
     53 N5         -5.7880    1.8940   -1.1220 n         1 MOL      0.061017
     54 C17        -6.9520    1.3280   -0.4080 c3        1 MOL     -0.323399
     55 C18        -7.3970   -0.0680   -0.9710 c         1 MOL      0.555979
     56 O9         -8.5500   -0.4380   -0.9460 o         1 MOL     -0.559223
     57 H25        -5.0910    2.3360   -0.5490 hn        1 MOL      0.051928
     58 H26        -7.7760    2.0000   -0.6130 h1        1 MOL      0.145364
     59 H27        -6.6000    1.2280    0.6220 h1        1 MOL      0.145364
     60 N6         -6.4350   -0.9900   -1.3950 n         1 MOL     -0.153306
     61 C19        -6.7150   -2.3500   -1.8270 c3        1 MOL     -0.222546
     62 C20        -6.7530   -3.3390   -0.6840 c         1 MOL      0.519658
     63 O10        -6.9760   -4.4950   -0.9540 o         1 MOL     -0.547164
     64 C21        -5.6480   -2.8150   -2.8690 c3        1 MOL     -0.154339
     65 C22        -4.1040   -2.7340   -2.4570 c         1 MOL      0.797198
     66 O11        -3.2390   -2.4690   -3.2500 o         1 MOL     -0.724770
     67 O12        -3.7950   -2.5570   -1.2870 o         1 MOL     -0.724770
     68 H28        -5.4700   -0.7520   -1.1780 hn        1 MOL      0.066929
     69 H29        -7.6270   -2.2720   -2.4130 h1        1 MOL      0.178458
     70 H30        -5.8130   -2.3490   -3.8410 hc        1 MOL      0.058323
     71 H31        -5.6910   -3.8670   -3.1340 hc        1 MOL      0.058323
     72 N7         -6.5180   -2.9450    0.5830 n         1 MOL     -0.231431
     73 C23        -6.5580   -3.8380    1.8230 c3        1 MOL     -0.213794
     74 C24        -5.1710   -4.3140    2.2350 c         1 MOL      0.622122
     75 O13        -5.0490   -5.2570    2.9860 o         1 MOL     -0.578707
     76 H32        -5.9850   -2.0920    0.6720 hn        1 MOL      0.208365
     77 H33        -7.2500   -4.6310    1.5550 h1        1 MOL      0.116990
     78 H34        -6.9560   -3.1540    2.5760 h1        1 MOL      0.116990
     79 N8         -4.0640   -3.7640    1.7030 n         1 MOL     -0.267706
     80 C25        -2.6840   -4.3030    1.9250 c3        1 MOL     -0.216226
     81 C26        -1.5870   -3.2300    1.7340 c         1 MOL      0.680445
     82 O14        -1.8250   -2.2160    1.0480 o         1 MOL     -0.657790
     83 C27        -2.3020   -5.4020    0.9170 c3        1 MOL      0.439918
     84 C28        -2.8780   -6.7510    1.2950 c3        1 MOL     -0.565014
     85 O15        -2.6750   -5.0160   -0.4280 oh        1 MOL     -0.585199
     86 H35        -4.1700   -2.9770    1.0760 hn        1 MOL      0.245892
     87 H36        -2.6230   -4.7130    2.9390 h1        1 MOL      0.118042
     88 H37        -1.2210   -5.5510    0.7990 h1        1 MOL      0.006752
     89 H38        -3.2240   -4.2340   -0.3420 ho        1 MOL      0.364924
     90 H39        -3.9570   -6.7140    1.1730 hc        1 MOL      0.145576
     91 H40        -2.4480   -7.3940    0.5290 hc        1 MOL      0.145576
     92 H41        -2.5910   -7.1760    2.2610 hc        1 MOL      0.145576
     93 N9         -0.4390   -3.3310    2.2990 n         1 MOL     -0.671064
     94 C29         0.6290   -2.2720    2.3200 c3        1 MOL      0.059149
     95 C30         1.9520   -2.8900    1.8670 c         1 MOL      0.568649
     96 O16         2.4850   -3.8350    2.4550 o         1 MOL     -0.569848
     97 C31         0.7880   -1.6760    3.7280 c3        1 MOL      0.304364
     98 C32        -0.5540   -1.0620    4.2920 c3        1 MOL      0.122664
     99 C33         1.8270   -0.5630    3.7020 c3        1 MOL     -0.460285
    100 C34        -0.5080   -0.7570    5.7920 c3        1 MOL     -0.213619
    101 H42        -0.3910   -4.0830    2.9760 hn        1 MOL      0.292578
    102 H43         0.3420   -1.4750    1.6210 h1        1 MOL      0.102645
    103 H44         1.1580   -2.4300    4.4350 hc        1 MOL     -0.021778
    104 H45        -1.3590   -1.7850    4.1540 hc        1 MOL     -0.007581
    105 H46        -0.8240   -0.1510    3.7580 hc        1 MOL     -0.007581
    106 H47         2.7220   -0.9160    3.1910 hc        1 MOL      0.075588
    107 H48         1.4410    0.2780    3.1310 hc        1 MOL      0.075588
    108 H49         2.1560   -0.3920    4.7340 hc        1 MOL      0.075588
    109 H50        -1.3200   -0.1140    6.1300 hc        1 MOL      0.040119
    110 H51        -0.5370   -1.7320    6.2740 hc        1 MOL      0.040119
    111 H52         0.4000   -0.2360    6.0920 hc        1 MOL      0.040119
    112 N10         2.4670   -2.2530    0.8070 n         1 MOL     -0.261680
    113 C35         3.7620   -2.6070    0.2120 c3        1 MOL     -0.028864
    114 C36         4.9850   -2.0180    0.8990 c         1 MOL      0.401039
    115 O17         4.8140   -0.9610    1.5400 o         1 MOL     -0.337708
    116 C37         3.7330   -2.2800   -1.3480 c3        1 MOL      0.035303
    117 C38         2.4560   -2.8390   -2.0700 c3        1 MOL     -0.557623
    118 O18         3.6190   -0.9050   -1.5570 oh        1 MOL     -0.279829
    119 H53         1.9130   -1.5090    0.4150 hn        1 MOL      0.235237
    120 H54         3.9610   -3.6790    0.2050 h1        1 MOL      0.088093
    121 H55         4.6310   -2.6210   -1.8530 h1        1 MOL      0.041669
    122 H56         3.2580   -0.7720   -2.4440 ho        1 MOL      0.352946
    123 H57         2.3190   -2.5020   -3.0990 hc        1 MOL      0.166465
    124 H58         2.5250   -3.9230   -2.0650 hc        1 MOL      0.166465
    125 H59         1.4990   -2.5840   -1.6100 hc        1 MOL      0.166465
    126 N11         6.2230   -2.4700    0.5680 n         1 MOL     -0.424462
    127 C39         7.5300   -1.8420    0.8750 c3        1 MOL      0.051429
    128 C40         7.6470   -0.3790    0.3980 c         1 MOL      0.251630
    129 O19         8.1880    0.5240    0.9710 o         1 MOL     -0.460175
    130 C41         8.6570   -2.6090    0.1920 c3        1 MOL      0.091904
    131 C42         8.9310   -4.0410    0.7800 c3        1 MOL     -0.477262
    132 O20         8.1960   -2.9290   -1.0790 oh        1 MOL     -0.592676
    133 H60         6.2610   -3.2700   -0.0470 hn        1 MOL      0.312611
    134 H61         7.6900   -1.7960    1.9510 h1        1 MOL      0.125588
    135 H62         9.5940   -2.0640    0.3090 h1        1 MOL      0.097915
    136 H63         8.9040   -3.4420   -1.4840 ho        1 MOL      0.405205
    137 H64         8.0620   -4.6850    0.6560 hc        1 MOL      0.144492
    138 H65         9.8090   -4.5440    0.3620 hc        1 MOL      0.144492
    139 H66         9.2810   -3.9380    1.8110 hc        1 MOL      0.144492
    140 N12         6.9620   -0.1310   -0.7860 n         1 MOL      0.072725
    141 C43         6.8830    1.1680   -1.4130 c3        1 MOL      0.076919
    142 C44         6.0220    2.1580   -0.5640 c         1 MOL      0.285319
    143 O21         6.5290    3.1850   -0.1270 o         1 MOL     -0.457706
    144 C45         6.4670    1.0620   -2.8850 c3        1 MOL     -0.307624
    145 C46         7.1840   -0.0510   -3.6860 c3        1 MOL      0.093617
    146 C47         8.7590   -0.0740   -3.6050 c3        1 MOL      0.330414
    147 C48         9.2800   -1.3880   -4.2330 c3        1 MOL     -0.061711
    148 N13        10.7010   -1.2600   -4.5270 n4        1 MOL     -0.209095
    149 H67         6.4270   -0.8800   -1.1860 hn        1 MOL      0.152532
    150 H68         7.8160    1.7390   -1.4260 h1        1 MOL      0.016973
    151 H69         6.6500    2.0380   -3.3190 hc        1 MOL      0.104260
    152 H70         5.3880    0.8790   -2.8920 hc        1 MOL      0.104260
    153 H71         6.9070    0.0220   -4.7410 hc        1 MOL     -0.034270
    154 H72         6.8200   -0.9750   -3.2480 hc        1 MOL     -0.034270
    155 H73         9.0710   -0.0030   -2.5600 hc        1 MOL     -0.070191
    156 H74         9.1160    0.8270   -4.1060 hc        1 MOL     -0.070191
    157 H75         8.7410   -1.5150   -5.1700 hx        1 MOL      0.063602
    158 H76         9.2060   -2.2270   -3.5410 hx        1 MOL      0.063602
    159 H77        11.3080   -0.9170   -3.8010 hn        1 MOL      0.251336
    160 H78        11.0480   -2.1750   -4.7420 hn        1 MOL      0.251336
    161 H79        10.8510   -0.6360   -5.3020 hn        1 MOL      0.251336
    162 N14         4.8230    1.6680   -0.1920 n         1 MOL      0.010357
    163 C49         3.9310    2.4150    0.6700 c3        1 MOL     -0.241728
    164 C50         4.3690    2.7260    2.1100 c         1 MOL      0.329755
    165 O22         4.2730    3.8650    2.5430 o         1 MOL     -0.517381
    166 C51         2.5920    1.6750    0.6720 c3        1 MOL      0.013791
    167 C52         1.8380    1.7590   -0.6680 c3        1 MOL      0.048011
    168 C53         0.5270    0.9530   -0.6110 c         1 MOL      0.661814
    169 O23        -0.5430    1.3870   -1.1490 o         1 MOL     -0.743858
    170 O24         0.3800   -0.1660   -0.0840 o         1 MOL     -0.743858
    171 H80         4.6060    0.7310   -0.4980 hn        1 MOL     -0.026830
    172 H81         3.8380    3.3940    0.2000 h1        1 MOL      0.138686
    173 H82         1.8770    2.1860    1.3080 hc        1 MOL      0.093643
    174 H83         2.7830    0.6520    1.0150 hc        1 MOL      0.093643
    175 H84         2.4730    1.3370   -1.4450 hc        1 MOL     -0.066158
    176 H85         1.5650    2.7980   -0.8200 hc        1 MOL     -0.066158
    177 N15         5.1710    1.8640    2.7260 n         1 MOL      0.070288
    178 C54         5.7600    2.2160    4.0410 c3        1 MOL     -0.427035
    179 H86         6.4310    3.0670    3.9220 h1        1 MOL      0.143106
    180 H87         4.9630    2.4760    4.7380 h1        1 MOL      0.143106
    181 H88         6.3200    1.3640    4.4270 h1        1 MOL      0.143106
    182 H89         5.2030    0.9250    2.3530 hn        1 MOL      0.101112
    183 Ca1        -1.9350   -0.8440   -1.2730 Ca        1 MOL      1.804106
    184 O25        -0.4280   -0.5270   -3.4550 oh        1 MOL     -0.831988
    185 H90        -1.0460    0.1030   -3.8190 ho        1 MOL      0.388890
    186 H91        -0.0100   -0.9170   -4.2210 ho        1 MOL      0.388890
    187 O26        -0.7700   -3.4170   -1.8350 oh        1 MOL     -0.831988
    188 H92        -0.0720   -4.0100   -2.1150 ho        1 MOL      0.388890
    189 H93        -1.5610   -3.9460   -1.8530 ho        1 MOL      0.388890
@<TRIPOS>BOND
     1    1    2 1   
     2    1    4 1   
     3    1    5 1   
     4    1    6 1   
     5    2    3 2   
     6    2    7 1   
     7    7    8 1   
     8    7   15 1   
     9    8    9 1   
    10    8   11 1   
    11    8   16 1   
    12    9   10 2   
    13    9   19 1   
    14   11   12 1   
    15   11   17 1   
    16   11   18 1   
    17   12   13 1   
    18   12   14 1   
    19   19   20 1   
    20   19   28 1   
    21   20   21 1   
    22   20   23 1   
    23   20   29 1   
    24   21   22 2   
    25   21   41 1   
    26   23   24 1   
    27   23   30 1   
    28   23   31 1   
    29   24   25 1   
    30   24   32 1   
    31   24   33 1   
    32   25   26 1   
    33   25   34 1   
    34   25   35 1   
    35   26   27 1   
    36   26   36 1   
    37   26   37 1   
    38   27   38 1   
    39   27   39 1   
    40   27   40 1   
    41   41   42 1   
    42   41   49 1   
    43   42   43 1   
    44   42   45 1   
    45   42   50 1   
    46   43   44 2   
    47   43   53 1   
    48   45   46 1   
    49   45   51 1   
    50   45   52 1   
    51   46   47 1   
    52   46   48 1   
    53   53   54 1   
    54   53   57 1   
    55   54   55 1   
    56   54   58 1   
    57   54   59 1   
    58   55   56 2   
    59   55   60 1   
    60   60   61 1   
    61   60   68 1   
    62   61   62 1   
    63   61   64 1   
    64   61   69 1   
    65   62   63 2   
    66   62   72 1   
    67   64   65 1   
    68   64   70 1   
    69   64   71 1   
    70   65   66 1   
    71   65   67 1   
    72   72   73 1   
    73   72   76 1   
    74   73   74 1   
    75   73   77 1   
    76   73   78 1   
    77   74   75 2   
    78   74   79 1   
    79   79   80 1   
    80   79   86 1   
    81   80   81 1   
    82   80   83 1   
    83   80   87 1   
    84   81   82 2   
    85   81   93 1   
    86   83   84 1   
    87   83   85 1   
    88   83   88 1   
    89   84   90 1   
    90   84   91 1   
    91   84   92 1   
    92   85   89 1   
    93   93   94 1   
    94   93  101 1   
    95   94   95 1   
    96   94   97 1   
    97   94  102 1   
    98   95   96 2   
    99   95  112 1   
   100   97   98 1   
   101   97   99 1   
   102   97  103 1   
   103   98  100 1   
   104   98  104 1   
   105   98  105 1   
   106   99  106 1   
   107   99  107 1   
   108   99  108 1   
   109  100  109 1   
   110  100  110 1   
   111  100  111 1   
   112  112  113 1   
   113  112  119 1   
   114  113  114 1   
   115  113  116 1   
   116  113  120 1   
   117  114  115 2   
   118  114  126 1   
   119  116  117 1   
   120  116  118 1   
   121  116  121 1   
   122  117  123 1   
   123  117  124 1   
   124  117  125 1   
   125  118  122 1   
   126  126  127 1   
   127  126  133 1   
   128  127  128 1   
   129  127  130 1   
   130  127  134 1   
   131  128  129 2   
   132  128  140 1   
   133  130  131 1   
   134  130  132 1   
   135  130  135 1   
   136  131  137 1   
   137  131  138 1   
   138  131  139 1   
   139  132  136 1   
   140  140  141 1   
   141  140  149 1   
   142  141  142 1   
   143  141  144 1   
   144  141  150 1   
   145  142  143 2   
   146  142  162 1   
   147  144  145 1   
   148  144  151 1   
   149  144  152 1   
   150  145  146 1   
   151  145  153 1   
   152  145  154 1   
   153  146  147 1   
   154  146  155 1   
   155  146  156 1   
   156  147  148 1   
   157  147  157 1   
   158  147  158 1   
   159  148  159 1   
   160  148  160 1   
   161  148  161 1   
   162  162  163 1   
   163  162  171 1   
   164  163  164 1   
   165  163  166 1   
   166  163  172 1   
   167  164  165 2   
   168  164  177 1   
   169  166  167 1   
   170  166  173 1   
   171  166  174 1   
   172  167  168 1   
   173  167  175 1   
   174  167  176 1   
   175  168  169 1   
   176  168  170 1   
   177  177  178 1   
   178  177  182 1   
   179  178  179 1   
   180  178  180 1   
   181  178  181 1   
   182  184  185 1   
   183  184  186 1   
   184  187  188 1   
   185  187  189 1   
@<TRIPOS>SUBSTRUCTURE
     1 MOL         1 TEMP              0 ****  ****    0 ROOT
