@<TRIPOS>MOLECULE
MOL
  172   171     1     0     0
SMALL
resp


@<TRIPOS>ATOM
      1 C1          0.3040    3.7710    5.4210 c3        1 MOL     -0.446782
      2 C2         -0.0890    3.3320    4.0110 c         1 MOL      0.712193
      3 O1          0.6230    3.6090    3.0280 o         1 MOL     -0.588335
      4 H1          1.3210    3.4420    5.6320 hc        1 MOL      0.110666
      5 H2          0.2510    4.8570    5.4910 hc        1 MOL      0.110666
      6 H3         -0.3800    3.3250    6.1440 hc        1 MOL      0.110666
      7 N1         -1.2110    2.6750    3.8840 n         1 MOL     -0.554572
      8 C3         -1.8430    2.3850    2.5070 c3        1 MOL      0.053974
      9 C4         -2.3410    3.6930    1.9520 c         1 MOL      0.602445
     10 O2         -3.0520    4.4690    2.6250 o         1 MOL     -0.631870
     11 C5         -3.0280    1.3710    2.7820 c3        1 MOL      0.055822
     12 C6         -3.6630    0.7010    1.5550 c         1 MOL      0.495649
     13 O3         -4.5830   -0.2030    1.6480 o         1 MOL     -0.658327
     14 O4         -3.3000    1.1370    0.4140 o         1 MOL     -0.658327
     15 H4         -1.7450    2.4640    4.7130 hn        1 MOL      0.304674
     16 H5         -1.0370    2.0710    1.8450 h1        1 MOL      0.074847
     17 H6         -3.7620    1.8500    3.4240 hc        1 MOL     -0.001794
     18 H7         -2.5860    0.6120    3.4280 hc        1 MOL     -0.001794
     19 N2         -2.0330    3.9810    0.6790 n         1 MOL     -0.284740
     20 C7         -2.2370    5.2580    0.0310 c3        1 MOL      0.152990
     21 C8         -3.4640    5.3490   -0.8710 c         1 MOL      0.402695
     22 O5         -4.2270    6.3210   -0.8250 o         1 MOL     -0.572678
     23 C9         -0.9580    5.5290   -0.7640 c3        1 MOL     -0.410055
     24 H8         -1.5560    3.2470    0.1800 hn        1 MOL      0.197981
     25 H9         -2.3240    5.9900    0.8300 h1        1 MOL      0.056124
     26 H10        -0.0840    5.6340   -0.1220 hc        1 MOL      0.100516
     27 H11        -0.8570    4.7540   -1.5270 hc        1 MOL      0.100516
     28 H12        -1.1860    6.4100   -1.3810 hc        1 MOL      0.100516
     29 N3         -3.7630    4.2130   -1.5060 n         1 MOL     -0.092151
     30 C10        -4.9170    3.9340   -2.4120 c3        1 MOL     -0.340467
     31 C11        -5.9960    3.0230   -1.7330 c         1 MOL      0.496788
     32 O6         -7.0200    2.6940   -2.3820 o         1 MOL     -0.554352
     33 C12        -4.4070    3.3140   -3.7400 c3        1 MOL      0.135950
     34 C13        -3.3310    2.2330   -3.6850 c         1 MOL      0.549375
     35 O7         -3.4240    1.2140   -2.9240 o         1 MOL     -0.659232
     36 O8         -2.3650    2.4210   -4.4320 o         1 MOL     -0.659232
     37 H13        -3.0390    3.5120   -1.4120 hn        1 MOL      0.217336
     38 H14        -5.4380    4.8460   -2.7120 h1        1 MOL      0.157534
     39 H15        -3.8930    4.0470   -4.3620 hc        1 MOL     -0.018716
     40 H16        -5.2640    3.0180   -4.3490 hc        1 MOL     -0.018716
     41 N4         -5.7780    2.6900   -0.4400 n         1 MOL     -0.115920
     42 C14        -6.6710    2.1310    0.5630 c3        1 MOL     -0.278939
     43 C15        -7.3460    0.8480    0.1770 c         1 MOL      0.562976
     44 O9         -8.4020    0.4960    0.6370 o         1 MOL     -0.592326
     45 H17        -4.8940    2.9210   -0.0310 hn        1 MOL      0.141231
     46 H18        -7.3940    2.9220    0.7480 h1        1 MOL      0.126012
     47 H19        -6.0360    1.8950    1.4120 h1        1 MOL      0.126012
     48 N5         -6.6420    0.0800   -0.6330 n         1 MOL     -0.133578
     49 C16        -7.1520   -1.1850   -1.1100 c3        1 MOL     -0.100512
     50 C17        -7.1490   -2.3610   -0.0910 c         1 MOL      0.427360
     51 O10        -7.8160   -3.3470   -0.2690 o         1 MOL     -0.553954
     52 C18        -6.3130   -1.6370   -2.4190 c3        1 MOL     -0.162016
     53 C19        -5.0070   -2.2370   -2.0680 c         1 MOL      0.590492
     54 N6         -4.8320   -3.5400   -2.2550 n         1 MOL     -0.660285
     55 O11        -4.2190   -1.5610   -1.3980 o         1 MOL     -0.632697
     56 H20        -5.7230    0.3080   -0.9690 hn        1 MOL      0.116502
     57 H21        -8.1530   -1.0140   -1.5090 h1        1 MOL      0.118392
     58 H22        -6.0860   -0.8370   -3.1270 hc        1 MOL      0.072944
     59 H23        -6.9640   -2.3590   -2.9060 hc        1 MOL      0.072944
     60 H24        -5.3150   -4.0430   -2.9860 hn        1 MOL      0.326079
     61 H25        -3.9280   -3.8520   -1.9370 hn        1 MOL      0.326079
     62 N7         -6.3810   -2.3090    0.9810 n         1 MOL     -0.088911
     63 C20        -6.2180   -3.4110    1.8940 c3        1 MOL     -0.180061
     64 C21        -4.9830   -4.2430    1.7270 c         1 MOL      0.583035
     65 O12        -5.0200   -5.3910    2.1460 o         1 MOL     -0.591521
     66 H26        -5.8950   -1.4480    1.1810 hn        1 MOL      0.195761
     67 H27        -7.0940   -4.0620    1.8490 h1        1 MOL      0.083884
     68 H28        -6.2010   -3.0180    2.9080 h1        1 MOL      0.083884
     69 N8         -3.9970   -3.7340    1.0040 n         1 MOL     -0.191745
     70 C22        -2.6650   -4.3750    1.0520 c3        1 MOL     -0.352809
     71 C23        -1.6380   -3.3000    1.0460 c         1 MOL      0.759002
     72 O13        -1.8350   -2.2440    0.4230 o         1 MOL     -0.532319
     73 C24        -2.3340   -5.4080   -0.0780 c3        1 MOL      0.461822
     74 C25        -3.1810   -6.6510   -0.0570 c3        1 MOL     -0.438752
     75 O14        -2.5220   -4.9130   -1.3300 oh        1 MOL     -0.658582
     76 H29        -4.1960   -2.7840    0.7300 hn        1 MOL      0.208212
     77 H30        -2.5510   -4.8900    1.9930 h1        1 MOL      0.122999
     78 H31        -1.2960   -5.7310    0.0490 h1        1 MOL      0.015119
     79 H32        -2.8680   -5.6180   -1.8780 ho        1 MOL      0.410213
     80 H33        -2.6190   -7.4680   -0.4970 hc        1 MOL      0.112736
     81 H34        -3.3600   -6.8900    0.9840 hc        1 MOL      0.112736
     82 H35        -4.1310   -6.4970   -0.5840 hc        1 MOL      0.112736
     83 N9         -0.5880   -3.4340    1.7840 n         1 MOL     -0.571548
     84 C26         0.5720   -2.5310    1.7290 c3        1 MOL      0.004713
     85 C27         1.5080   -2.8740    0.5090 c         1 MOL      0.548692
     86 O15         1.9570   -4.0230    0.3740 o         1 MOL     -0.607393
     87 C28         1.2270   -2.4650    3.0980 c3        1 MOL      0.143347
     88 C29         0.3130   -1.8870    4.2040 c3        1 MOL      0.328611
     89 C30         2.6130   -1.8660    3.1490 c3        1 MOL     -0.133523
     90 C31         0.7640   -2.1990    5.6240 c3        1 MOL     -0.215346
     91 H36        -0.4850   -4.1800    2.4540 hn        1 MOL      0.297235
     92 H37         0.2440   -1.5070    1.5770 h1        1 MOL      0.047071
     93 H38         1.3610   -3.4810    3.4550 hc        1 MOL     -0.037585
     94 H39        -0.6800   -2.3330    4.0830 hc        1 MOL     -0.087734
     95 H40         0.1610   -0.8240    4.0390 hc        1 MOL     -0.087734
     96 H41         2.7580   -0.8120    2.8920 hc        1 MOL      0.019053
     97 H42         3.1720   -2.1240    4.0440 hc        1 MOL      0.019053
     98 H43         3.1630   -2.4210    2.3810 hc        1 MOL      0.019053
     99 H44         0.1600   -1.5670    6.2660 hc        1 MOL      0.029313
    100 H45         0.6370   -3.2430    5.9180 hc        1 MOL      0.029313
    101 H46         1.8090   -1.9020    5.7350 hc        1 MOL      0.029313
    102 N10         1.8930   -1.8560   -0.2570 n         1 MOL     -0.191641
    103 C32         2.9330   -1.9590   -1.2750 c3        1 MOL      0.065129
    104 C33         4.3170   -1.5780   -0.7180 c         1 MOL      0.422625
    105 O16         4.4140   -0.8400    0.2490 o         1 MOL     -0.264561
    106 C34         2.4560   -1.1140   -2.4480 c3        1 MOL     -0.280987
    107 C35         1.0350   -1.3700   -2.9710 c         1 MOL      0.866993
    108 O17         0.7830   -2.4860   -3.4560 o         1 MOL     -0.733387
    109 O18         0.0910   -0.5560   -2.8940 o         1 MOL     -0.733387
    110 H47         1.4180   -0.9830   -0.0560 hn        1 MOL     -0.039472
    111 H48         2.9350   -2.9400   -1.7430 h1        1 MOL      0.061151
    112 H49         3.1810   -1.2510   -3.2460 hc        1 MOL      0.053221
    113 H50         2.4840   -0.0600   -2.1580 hc        1 MOL      0.053221
    114 N11         5.3820   -1.9630   -1.3710 n         1 MOL     -0.571099
    115 C36         6.7610   -1.6470   -0.9230 c3        1 MOL      0.201885
    116 C37         7.0660   -0.1780   -0.6100 c         1 MOL      0.400142
    117 O19         7.6090    0.0450    0.4160 o         1 MOL     -0.489362
    118 C38         7.7130   -2.2080   -1.9680 c3        1 MOL     -0.099150
    119 C39         9.1490   -1.9570   -1.5970 ca        1 MOL      0.080003
    120 C40         9.5790   -2.3860   -0.3030 ca        1 MOL     -0.232157
    121 C41         9.9890   -1.0870   -2.3540 ca        1 MOL     -0.232157
    122 C42        10.8040   -1.9440    0.1450 ca        1 MOL     -0.022889
    123 C43        11.1990   -0.6200   -1.8710 ca        1 MOL     -0.022889
    124 C44        11.6300   -1.1150   -0.6170 ca        1 MOL     -0.179604
    125 H51         5.2670   -2.5900   -2.1640 hn        1 MOL      0.319657
    126 H52         6.7570   -2.2770   -0.0350 h1        1 MOL      0.093874
    127 H53         7.5210   -1.7770   -2.9500 hc        1 MOL      0.044400
    128 H54         7.5880   -3.2880   -2.0570 hc        1 MOL      0.044400
    129 H55         8.9070   -2.9150    0.3630 ha        1 MOL      0.130963
    130 H56         9.6150   -0.8430   -3.3420 ha        1 MOL      0.130963
    131 H57        11.2540   -2.3300    1.0520 ha        1 MOL      0.093743
    132 H58        11.7420    0.1220   -2.4380 ha        1 MOL      0.093743
    133 H59        12.5730   -0.8760   -0.1500 ha        1 MOL      0.109449
    134 N12         6.6330    0.8640   -1.3330 n         1 MOL     -0.016495
    135 C45         6.7820    2.2840   -0.9490 c3        1 MOL      0.076406
    136 C46         5.8300    2.6670    0.1530 c         1 MOL      0.247193
    137 O20         6.0960    3.5390    0.9540 o         1 MOL     -0.502242
    138 C47         6.5620    3.1850   -2.2080 c3        1 MOL     -0.042813
    139 C48         6.5190    2.2360   -3.3680 c3        1 MOL      0.037691
    140 C49         6.2270    0.8350   -2.7850 c3        1 MOL     -0.215204
    141 H60         7.8080    2.4470   -0.6110 h1        1 MOL      0.050927
    142 H61         5.6420    3.7640   -2.1880 hc        1 MOL      0.040261
    143 H62         7.4100    3.8520   -2.3580 hc        1 MOL      0.040261
    144 H63         5.7640    2.5920   -4.0620 hc        1 MOL      0.010904
    145 H64         7.4640    2.1750   -3.9080 hc        1 MOL      0.010904
    146 H65         5.1500    0.6860   -2.7940 h1        1 MOL      0.089538
    147 H66         6.7550    0.1160   -3.4220 h1        1 MOL      0.089538
    148 N13         4.7100    1.9720    0.2230 n         1 MOL     -0.063300
    149 C50         3.7680    2.2220    1.3560 c3        1 MOL     -0.210425
    150 C51         4.3590    1.6560    2.6690 c         1 MOL      0.467961
    151 O21         4.1120    2.1610    3.7520 o         1 MOL     -0.566065
    152 C52         2.4030    1.6590    0.9870 c3        1 MOL      0.047398
    153 C53         1.6540    2.3000   -0.1490 c3        1 MOL     -0.026399
    154 C54         0.3390    1.5330   -0.4240 c         1 MOL      0.585536
    155 O22         0.2710    0.2900   -0.2060 o         1 MOL     -0.664954
    156 O23        -0.6830    2.1040   -0.8260 o         1 MOL     -0.664954
    157 H67         4.6930    1.0460   -0.1820 hn        1 MOL      0.054094
    158 H68         3.6050    3.2800    1.5180 h1        1 MOL      0.160474
    159 H69         1.7000    1.6920    1.8100 hc        1 MOL      0.060787
    160 H70         2.4740    0.6010    0.7300 hc        1 MOL      0.060787
    161 H71         2.3210    2.3560   -1.0030 hc        1 MOL      0.027325
    162 H72         1.3210    3.3090    0.1030 hc        1 MOL      0.027325
    163 N14         5.2280    0.6740    2.5310 n         1 MOL      0.110031
    164 C55         6.0690    0.2100    3.6470 c3        1 MOL     -0.187608
    165 H73         5.6880    0.6200    4.5830 h1        1 MOL      0.065869
    166 H74         6.0460   -0.8790    3.6930 h1        1 MOL      0.065869
    167 H75         7.0940    0.5460    3.4940 h1        1 MOL      0.065869
    168 H76         5.1380    0.1760    1.6610 hn        1 MOL     -0.079603
    169 Ca1        -1.9820   -0.1870   -1.3480 Ca        1 MOL      1.724425
    170 O24        -1.7770   -2.5810   -2.6820 oh        1 MOL     -0.914206
    171 H77        -2.0060   -3.4250   -2.2960 ho        1 MOL      0.419076
    172 H78        -0.8460   -2.6590   -2.9070 ho        1 MOL      0.419076
@<TRIPOS>BOND
     1    1    2 1   
     2    1    4 1   
     3    1    5 1   
     4    1    6 1   
     5    2    3 2   
     6    2    7 1   
     7    7    8 1   
     8    7   15 1   
     9    8    9 1   
    10    8   11 1   
    11    8   16 1   
    12    9   10 2   
    13    9   19 1   
    14   11   12 1   
    15   11   17 1   
    16   11   18 1   
    17   12   13 1   
    18   12   14 1   
    19   19   20 1   
    20   19   24 1   
    21   20   21 1   
    22   20   23 1   
    23   20   25 1   
    24   21   22 2   
    25   21   29 1   
    26   23   26 1   
    27   23   27 1   
    28   23   28 1   
    29   29   30 1   
    30   29   37 1   
    31   30   31 1   
    32   30   33 1   
    33   30   38 1   
    34   31   32 2   
    35   31   41 1   
    36   33   34 1   
    37   33   39 1   
    38   33   40 1   
    39   34   35 1   
    40   34   36 1   
    41   41   42 1   
    42   41   45 1   
    43   42   43 1   
    44   42   46 1   
    45   42   47 1   
    46   43   44 2   
    47   43   48 1   
    48   48   49 1   
    49   48   56 1   
    50   49   50 1   
    51   49   52 1   
    52   49   57 1   
    53   50   51 2   
    54   50   62 1   
    55   52   53 1   
    56   52   58 1   
    57   52   59 1   
    58   53   54 1   
    59   53   55 2   
    60   54   60 1   
    61   54   61 1   
    62   62   63 1   
    63   62   66 1   
    64   63   64 1   
    65   63   67 1   
    66   63   68 1   
    67   64   65 2   
    68   64   69 1   
    69   69   70 1   
    70   69   76 1   
    71   70   71 1   
    72   70   73 1   
    73   70   77 1   
    74   71   72 2   
    75   71   83 1   
    76   73   74 1   
    77   73   75 1   
    78   73   78 1   
    79   74   80 1   
    80   74   81 1   
    81   74   82 1   
    82   75   79 1   
    83   83   84 1   
    84   83   91 1   
    85   84   85 1   
    86   84   87 1   
    87   84   92 1   
    88   85   86 2   
    89   85  102 1   
    90   87   88 1   
    91   87   89 1   
    92   87   93 1   
    93   88   90 1   
    94   88   94 1   
    95   88   95 1   
    96   89   96 1   
    97   89   97 1   
    98   89   98 1   
    99   90   99 1   
   100   90  100 1   
   101   90  101 1   
   102  102  103 1   
   103  102  110 1   
   104  103  104 1   
   105  103  106 1   
   106  103  111 1   
   107  104  105 2   
   108  104  114 1   
   109  106  107 1   
   110  106  112 1   
   111  106  113 1   
   112  107  108 1   
   113  107  109 1   
   114  114  115 1   
   115  114  125 1   
   116  115  116 1   
   117  115  118 1   
   118  115  126 1   
   119  116  117 2   
   120  116  134 1   
   121  118  119 1   
   122  118  127 1   
   123  118  128 1   
   124  119  120 ar  
   125  119  121 ar  
   126  120  122 ar  
   127  120  129 1   
   128  121  123 ar  
   129  121  130 1   
   130  122  124 ar  
   131  122  131 1   
   132  123  124 ar  
   133  123  132 1   
   134  124  133 1   
   135  134  135 1   
   136  134  140 1   
   137  135  136 1   
   138  135  138 1   
   139  135  141 1   
   140  136  137 2   
   141  136  148 1   
   142  138  139 1   
   143  138  142 1   
   144  138  143 1   
   145  139  140 1   
   146  139  144 1   
   147  139  145 1   
   148  140  146 1   
   149  140  147 1   
   150  148  149 1   
   151  148  157 1   
   152  149  150 1   
   153  149  152 1   
   154  149  158 1   
   155  150  151 2   
   156  150  163 1   
   157  152  153 1   
   158  152  159 1   
   159  152  160 1   
   160  153  154 1   
   161  153  161 1   
   162  153  162 1   
   163  154  155 1   
   164  154  156 1   
   165  163  164 1   
   166  163  168 1   
   167  164  165 1   
   168  164  166 1   
   169  164  167 1   
   170  170  171 1   
   171  170  172 1   
@<TRIPOS>SUBSTRUCTURE
     1 MOL         1 TEMP              0 ****  ****    0 ROOT
