@<TRIPOS>MOLECULE
MOL
  189   185     1     0     0
SMALL
resp


@<TRIPOS>ATOM
      1 C1          1.3730    5.1150   -4.5900 c3        1 MOL     -0.398645
      2 C2          1.3100    3.9870   -3.5130 c         1 MOL      0.644507
      3 O1          0.2510    3.8740   -2.8420 o         1 MOL     -0.544220
      4 H1          0.9970    4.7330   -5.5380 hc        1 MOL      0.099912
      5 H2          0.7610    5.9590   -4.2700 hc        1 MOL      0.099912
      6 H3          2.4060    5.4420   -4.7140 hc        1 MOL      0.099912
      7 N1          2.3500    3.1450   -3.3690 n         1 MOL     -0.527909
      8 C3          2.5140    2.4240   -2.0700 c3        1 MOL      0.168412
      9 C4          2.7140    3.5410   -0.9350 c         1 MOL      0.418719
     10 O2          3.4740    4.5030   -1.0870 o         1 MOL     -0.556294
     11 C5          3.7940    1.7120   -2.1280 c3        1 MOL     -0.146957
     12 C6          4.1530    0.7730   -0.9520 c         1 MOL      0.965813
     13 O3          5.1610    0.0180   -1.1400 o         1 MOL     -0.792997
     14 O4          3.4910    0.6950    0.1190 o         1 MOL     -0.792997
     15 H4          3.1320    3.3020   -3.9920 hn        1 MOL      0.329011
     16 H5          1.7730    1.6650   -1.8310 h1        1 MOL     -0.051994
     17 H6          4.5890    2.4300   -2.3000 hc        1 MOL      0.023388
     18 H7          3.6390    1.0410   -2.9740 hc        1 MOL      0.023388
     19 N2          1.8670    3.4400    0.1440 n         1 MOL     -0.045827
     20 C7          1.7160    4.4800    1.1840 c3        1 MOL     -0.021962
     21 C8          2.4280    4.2460    2.5590 c         1 MOL      0.656675
     22 O5          2.4520    5.1780    3.3900 o         1 MOL     -0.590680
     23 C9          0.2390    4.9100    1.4090 c3        1 MOL     -0.104020
     24 C10        -0.4930    5.4100    0.1650 c3        1 MOL      0.165863
     25 C11         0.1630    6.5660   -0.4660 c3        1 MOL     -0.385477
     26 C12        -0.7860    7.2930   -1.4730 c3        1 MOL      0.102153
     27 N3         -0.1210    8.4790   -2.0840 n4        1 MOL     -0.288723
     28 H8          1.3430    2.5800    0.1680 hn        1 MOL      0.057715
     29 H9          2.2510    5.3820    0.9010 h1        1 MOL      0.019004
     30 H10         0.3140    5.6810    2.1710 hc        1 MOL      0.028849
     31 H11        -0.2430    4.0230    1.8460 hc        1 MOL      0.028849
     32 H12        -1.4910    5.7150    0.4840 hc        1 MOL      0.014196
     33 H13        -0.6470    4.5700   -0.5090 hc        1 MOL      0.014196
     34 H14         0.9880    6.0890   -1.0030 hc        1 MOL      0.124964
     35 H15         0.4820    7.2680    0.3010 hc        1 MOL      0.124964
     36 H16        -1.7070    7.6780   -1.0100 hx        1 MOL      0.076540
     37 H17        -1.1380    6.5160   -2.1580 hx        1 MOL      0.076540
     38 H18        -0.6480    9.0420   -2.7320 hn        1 MOL      0.301418
     39 H19         0.4360    8.9710   -1.4030 hn        1 MOL      0.301418
     40 H20         0.6070    8.1490   -2.6950 hn        1 MOL      0.301418
     41 N4          3.0770    3.0970    2.6900 n         1 MOL     -0.485073
     42 C13         4.0530    2.7310    3.8160 c3        1 MOL     -0.017523
     43 C14         5.3620    1.9460    3.4190 c         1 MOL      0.484488
     44 O6          6.2430    1.8070    4.2640 o         1 MOL     -0.517948
     45 C15         3.2460    1.9560    4.8230 c3        1 MOL     -0.152308
     46 C16         2.5120    0.6670    4.3720 c         1 MOL      0.821210
     47 O7          2.4420    0.3540    3.1400 o         1 MOL     -0.698500
     48 O8          1.9890   -0.1270    5.1830 o         1 MOL     -0.698500
     49 H21         2.8360    2.3310    2.0800 hn        1 MOL      0.183144
     50 H22         4.3990    3.6910    4.2170 h1        1 MOL      0.099056
     51 H23         2.4220    2.5020    5.2960 hc        1 MOL      0.042970
     52 H24         3.9230    1.6500    5.6160 hc        1 MOL      0.042970
     53 N5          5.4390    1.5030    2.1760 n         1 MOL     -0.067622
     54 C17         6.7670    1.1150    1.6370 c3        1 MOL     -0.392136
     55 C18         7.0980   -0.3090    2.0080 c         1 MOL      0.736549
     56 O9          7.6520   -0.6700    2.9920 o         1 MOL     -0.523197
     57 H25         4.6840    1.5470    1.5050 hn        1 MOL      0.119131
     58 H26         7.4920    1.8790    1.9070 h1        1 MOL      0.133025
     59 H27         6.7290    1.2030    0.5450 h1        1 MOL      0.133025
     60 N6          6.7120   -1.1950    1.0410 n         1 MOL     -0.556014
     61 C19         6.9670   -2.6150    1.0520 c3        1 MOL      0.093665
     62 C20         6.9920   -3.1650   -0.3680 c         1 MOL      0.355483
     63 O10         7.1850   -4.3870   -0.6530 o         1 MOL     -0.527465
     64 C21         5.8300   -3.3360    1.8460 c3        1 MOL     -0.217274
     65 C22         4.4880   -2.7620    1.6550 c         1 MOL      0.819090
     66 O11         3.8720   -2.2970    2.6030 o         1 MOL     -0.707320
     67 O12         3.9860   -2.8540    0.5030 o         1 MOL     -0.707320
     68 H28         6.1740   -0.8640    0.2580 hn        1 MOL      0.207216
     69 H29         7.8960   -2.9160    1.5480 h1        1 MOL      0.089111
     70 H30         5.9970   -3.2440    2.9140 hc        1 MOL      0.055661
     71 H31         5.7620   -4.3820    1.5320 hc        1 MOL      0.055661
     72 N7          6.5530   -2.3980   -1.3900 n         1 MOL     -0.237800
     73 C23         6.3510   -2.8210   -2.7670 c3        1 MOL     -0.166417
     74 C24         4.9530   -3.2600   -3.1600 c         1 MOL      0.548894
     75 O13         4.7290   -3.7140   -4.2980 o         1 MOL     -0.605127
     76 H32         6.3230   -1.4320   -1.2290 hn        1 MOL      0.289884
     77 H33         6.8600   -3.7690   -2.9190 h1        1 MOL      0.106518
     78 H34         6.7530   -2.0600   -3.4320 h1        1 MOL      0.106518
     79 N8          3.9100   -3.1330   -2.3300 n         1 MOL     -0.215311
     80 C25         2.5870   -3.7160   -2.5980 c3        1 MOL     -0.181141
     81 C26         1.5090   -2.7260   -2.1760 c         1 MOL      0.655848
     82 O14         1.7650   -1.9680   -1.2770 o         1 MOL     -0.663405
     83 C27         2.3720   -5.0960   -1.9750 c3        1 MOL      0.528050
     84 C28         3.2110   -6.0980   -2.7020 c3        1 MOL     -0.401526
     85 O15         2.5890   -5.0710   -0.5880 oh        1 MOL     -0.616353
     86 H35         4.0880   -2.7050   -1.4320 hn        1 MOL      0.180693
     87 H36         2.3860   -3.8770   -3.6560 h1        1 MOL      0.083791
     88 H37         1.3200   -5.2690   -2.2020 h1        1 MOL     -0.060175
     89 H38         3.1990   -4.3380   -0.4510 ho        1 MOL      0.393709
     90 H39         4.1610   -6.1380   -2.1780 hc        1 MOL      0.096671
     91 H40         2.8720   -7.1330   -2.5820 hc        1 MOL      0.096671
     92 H41         3.3310   -5.9180   -3.7650 hc        1 MOL      0.096671
     93 N9          0.4740   -2.6140   -2.9500 n         1 MOL     -0.573190
     94 C29        -0.7030   -1.6990   -2.6820 c3        1 MOL      0.146541
     95 C30        -1.9540   -2.4870   -2.3320 c         1 MOL      0.515391
     96 O16        -2.3730   -3.3810   -3.0340 o         1 MOL     -0.553411
     97 C31        -0.8720   -0.7710   -3.8960 c3        1 MOL     -0.164905
     98 C32         0.1260    0.4340   -3.8990 c3        1 MOL      0.105181
     99 C33        -2.3680   -0.3590   -4.1340 c3        1 MOL     -0.003090
    100 C34         0.2300    1.1410   -5.2500 c3        1 MOL     -0.423135
    101 H42         0.3930   -3.2530   -3.7290 hn        1 MOL      0.313459
    102 H43        -0.4300   -1.1780   -1.7610 h1        1 MOL      0.051115
    103 H44        -0.6440   -1.3550   -4.7770 hc        1 MOL      0.083112
    104 H45         1.0950    0.2300   -3.4370 hc        1 MOL      0.073362
    105 H46        -0.2860    1.2030   -3.2570 hc        1 MOL      0.073362
    106 H47        -2.9350   -0.1720   -3.2240 hc        1 MOL     -0.003878
    107 H48        -2.3890    0.5620   -4.7230 hc        1 MOL     -0.003878
    108 H49        -2.9810   -1.0150   -4.7500 hc        1 MOL     -0.003878
    109 H50        -0.0300    0.4300   -6.0340 hc        1 MOL      0.106287
    110 H51        -0.4850    1.9550   -5.2050 hc        1 MOL      0.106287
    111 H52         1.2290    1.5520   -5.3800 hc        1 MOL      0.106287
    112 N10        -2.5620   -2.2140   -1.1540 n         1 MOL     -0.093064
    113 C35        -3.7840   -2.7960   -0.6640 c3        1 MOL      0.077231
    114 C36        -5.0510   -2.1480   -1.1090 c         1 MOL      0.209303
    115 O17        -5.0240   -1.1630   -1.9050 o         1 MOL     -0.280497
    116 C37        -3.6920   -2.7650    0.8800 c3        1 MOL      0.010325
    117 C38        -2.5330   -3.4750    1.5690 c3        1 MOL     -0.260288
    118 O18        -3.7130   -1.3530    1.3040 oh        1 MOL     -0.268888
    119 H53        -2.1670   -1.4850   -0.5710 hn        1 MOL     -0.068899
    120 H54        -3.7090   -3.8440   -0.9440 h1        1 MOL      0.070849
    121 H55        -4.6400   -3.1850    1.2200 h1        1 MOL      0.013729
    122 H56        -3.4950   -1.4170    2.2320 ho        1 MOL      0.336997
    123 H57        -2.8630   -3.9850    2.4730 hc        1 MOL      0.084656
    124 H58        -2.0990   -4.2510    0.9370 hc        1 MOL      0.084656
    125 H59        -1.9050   -2.6190    1.8120 hc        1 MOL      0.084656
    126 N11        -6.1600   -2.6960   -0.5990 n         1 MOL     -0.179541
    127 C39        -7.4630   -2.0940   -0.7590 c3        1 MOL     -0.078834
    128 C40        -7.5740   -0.6760   -0.3110 c         1 MOL      0.202726
    129 O19        -8.1070    0.1700   -1.0610 o         1 MOL     -0.459814
    130 C41        -8.5970   -2.8410    0.0080 c3        1 MOL      0.269009
    131 C42        -9.0850   -4.0590   -0.7030 c3        1 MOL     -0.439986
    132 O20        -8.1060   -3.2400    1.2980 oh        1 MOL     -0.655673
    133 H60        -6.1290   -3.6160   -0.1850 hn        1 MOL      0.258496
    134 H61        -7.6630   -2.1100   -1.8310 h1        1 MOL      0.140626
    135 H62        -9.5290   -2.2960    0.1890 h1        1 MOL      0.081702
    136 H63        -8.8510   -3.6570    1.7410 ho        1 MOL      0.413914
    137 H64        -9.8760   -4.4440   -0.0480 hc        1 MOL      0.126247
    138 H65        -9.3810   -3.7680   -1.7030 hc        1 MOL      0.126247
    139 H66        -8.2970   -4.8020   -0.8060 hc        1 MOL      0.126247
    140 N12        -6.9520   -0.3230    0.7860 n         1 MOL     -0.080178
    141 C43        -6.8180    1.0370    1.3870 c3        1 MOL     -0.121836
    142 C44        -5.8150    1.9290    0.6360 c         1 MOL      0.368279
    143 O21        -6.0110    3.1310    0.4900 o         1 MOL     -0.506378
    144 C45        -6.3200    0.7880    2.7390 c3        1 MOL      0.131581
    145 C46        -6.8620   -0.3340    3.6270 c3        1 MOL     -0.101626
    146 C47        -6.5810   -0.1750    5.1390 c3        1 MOL     -0.288187
    147 C48        -6.8650   -1.4270    5.9960 c3        1 MOL     -0.070917
    148 N13        -5.8820   -2.4850    5.8180 n4        1 MOL     -0.190953
    149 H67        -6.4570   -1.0630    1.2600 hn        1 MOL      0.119967
    150 H68        -7.7820    1.5240    1.2490 h1        1 MOL      0.138493
    151 H69        -6.3030    1.7650    3.2270 hc        1 MOL      0.000831
    152 H70        -5.2480    0.5790    2.6790 hc        1 MOL      0.000831
    153 H71        -6.5640   -1.3440    3.3360 hc        1 MOL      0.034417
    154 H72        -7.9410   -0.3300    3.4860 hc        1 MOL      0.034417
    155 H73        -7.2670    0.6310    5.4020 hc        1 MOL      0.147489
    156 H74        -5.6520    0.3300    5.4320 hc        1 MOL      0.147489
    157 H75        -7.8670   -1.8360    5.8360 hx        1 MOL      0.126550
    158 H76        -6.8210   -1.1370    7.0540 hx        1 MOL      0.126550
    159 H77        -6.3040   -3.0500    5.1000 hn        1 MOL      0.273258
    160 H78        -4.9760   -2.1810    5.4950 hn        1 MOL      0.273258
    161 H79        -5.8400   -3.1100    6.6130 hn        1 MOL      0.273258
    162 N14        -4.7680    1.3610    0.0750 n         1 MOL      0.060541
    163 C49        -3.8220    2.1890   -0.6670 c3        1 MOL     -0.024213
    164 C50        -4.3080    2.5450   -2.0920 c         1 MOL      0.385478
    165 O22        -4.1850    3.6640   -2.5220 o         1 MOL     -0.521467
    166 C51        -2.4940    1.4220   -0.6000 c3        1 MOL      0.102566
    167 C52        -1.8370    1.3810    0.7480 c3        1 MOL     -0.051780
    168 C53        -0.5360    0.4770    0.6620 c         1 MOL      0.517253
    169 O23        -0.5870   -0.7740    0.6060 o         1 MOL     -0.521214
    170 O24         0.5920    0.9770    0.6710 o         1 MOL     -0.521214
    171 H80        -4.4920    0.4360    0.3650 hn        1 MOL     -0.030237
    172 H81        -3.5900    3.0460   -0.0440 h1        1 MOL      0.043101
    173 H82        -1.8230    1.9620   -1.2670 hc        1 MOL     -0.004467
    174 H83        -2.6920    0.4060   -0.9600 hc        1 MOL     -0.004467
    175 H84        -2.5110    0.9710    1.5020 hc        1 MOL     -0.026129
    176 H85        -1.7750    2.4540    0.9340 hc        1 MOL     -0.026129
    177 N15        -5.0150    1.5630   -2.7510 n         1 MOL     -0.038747
    178 C54        -5.8860    1.7800   -3.9170 c3        1 MOL     -0.346779
    179 H86        -5.3760    1.4410   -4.8180 h1        1 MOL      0.122473
    180 H87        -6.8110    1.2180   -3.7900 h1        1 MOL      0.122473
    181 H88        -6.1150    2.8420   -4.0080 h1        1 MOL      0.122473
    182 H89        -5.0750    0.6510   -2.3230 hn        1 MOL      0.115203
    183 Ca1         1.9890   -1.0570    1.1150 Ca        1 MOL      1.722264
    184 O25         0.0880   -1.3270    3.6700 oh        1 MOL     -0.856318
    185 H90        -0.4080   -2.0050    4.1190 ho        1 MOL      0.384241
    186 H91         0.8090   -1.1170    4.2710 ho        1 MOL      0.384241
    187 O26         1.2780   -3.6290    1.4580 oh        1 MOL     -0.856318
    188 H92         1.7640   -4.4090    1.2040 ho        1 MOL      0.384241
    189 H93         0.6440   -3.9350    2.1070 ho        1 MOL      0.384241
@<TRIPOS>BOND
     1    1    2 1   
     2    1    4 1   
     3    1    5 1   
     4    1    6 1   
     5    2    3 2   
     6    2    7 1   
     7    7    8 1   
     8    7   15 1   
     9    8    9 1   
    10    8   11 1   
    11    8   16 1   
    12    9   10 2   
    13    9   19 1   
    14   11   12 1   
    15   11   17 1   
    16   11   18 1   
    17   12   13 1   
    18   12   14 1   
    19   19   20 1   
    20   19   28 1   
    21   20   21 1   
    22   20   23 1   
    23   20   29 1   
    24   21   22 2   
    25   21   41 1   
    26   23   24 1   
    27   23   30 1   
    28   23   31 1   
    29   24   25 1   
    30   24   32 1   
    31   24   33 1   
    32   25   26 1   
    33   25   34 1   
    34   25   35 1   
    35   26   27 1   
    36   26   36 1   
    37   26   37 1   
    38   27   38 1   
    39   27   39 1   
    40   27   40 1   
    41   41   42 1   
    42   41   49 1   
    43   42   43 1   
    44   42   45 1   
    45   42   50 1   
    46   43   44 2   
    47   43   53 1   
    48   45   46 1   
    49   45   51 1   
    50   45   52 1   
    51   46   47 1   
    52   46   48 1   
    53   53   54 1   
    54   53   57 1   
    55   54   55 1   
    56   54   58 1   
    57   54   59 1   
    58   55   56 2   
    59   55   60 1   
    60   60   61 1   
    61   60   68 1   
    62   61   62 1   
    63   61   64 1   
    64   61   69 1   
    65   62   63 2   
    66   62   72 1   
    67   64   65 1   
    68   64   70 1   
    69   64   71 1   
    70   65   66 1   
    71   65   67 1   
    72   72   73 1   
    73   72   76 1   
    74   73   74 1   
    75   73   77 1   
    76   73   78 1   
    77   74   75 2   
    78   74   79 1   
    79   79   80 1   
    80   79   86 1   
    81   80   81 1   
    82   80   83 1   
    83   80   87 1   
    84   81   82 2   
    85   81   93 1   
    86   83   84 1   
    87   83   85 1   
    88   83   88 1   
    89   84   90 1   
    90   84   91 1   
    91   84   92 1   
    92   85   89 1   
    93   93   94 1   
    94   93  101 1   
    95   94   95 1   
    96   94   97 1   
    97   94  102 1   
    98   95   96 2   
    99   95  112 1   
   100   97   98 1   
   101   97   99 1   
   102   97  103 1   
   103   98  100 1   
   104   98  104 1   
   105   98  105 1   
   106   99  106 1   
   107   99  107 1   
   108   99  108 1   
   109  100  109 1   
   110  100  110 1   
   111  100  111 1   
   112  112  113 1   
   113  112  119 1   
   114  113  114 1   
   115  113  116 1   
   116  113  120 1   
   117  114  115 2   
   118  114  126 1   
   119  116  117 1   
   120  116  118 1   
   121  116  121 1   
   122  117  123 1   
   123  117  124 1   
   124  117  125 1   
   125  118  122 1   
   126  126  127 1   
   127  126  133 1   
   128  127  128 1   
   129  127  130 1   
   130  127  134 1   
   131  128  129 2   
   132  128  140 1   
   133  130  131 1   
   134  130  132 1   
   135  130  135 1   
   136  131  137 1   
   137  131  138 1   
   138  131  139 1   
   139  132  136 1   
   140  140  141 1   
   141  140  149 1   
   142  141  142 1   
   143  141  144 1   
   144  141  150 1   
   145  142  143 2   
   146  142  162 1   
   147  144  145 1   
   148  144  151 1   
   149  144  152 1   
   150  145  146 1   
   151  145  153 1   
   152  145  154 1   
   153  146  147 1   
   154  146  155 1   
   155  146  156 1   
   156  147  148 1   
   157  147  157 1   
   158  147  158 1   
   159  148  159 1   
   160  148  160 1   
   161  148  161 1   
   162  162  163 1   
   163  162  171 1   
   164  163  164 1   
   165  163  166 1   
   166  163  172 1   
   167  164  165 2   
   168  164  177 1   
   169  166  167 1   
   170  166  173 1   
   171  166  174 1   
   172  167  168 1   
   173  167  175 1   
   174  167  176 1   
   175  168  169 1   
   176  168  170 1   
   177  177  178 1   
   178  177  182 1   
   179  178  179 1   
   180  178  180 1   
   181  178  181 1   
   182  184  185 1   
   183  184  186 1   
   184  187  188 1   
   185  187  189 1   
@<TRIPOS>SUBSTRUCTURE
     1 MOL         1 TEMP              0 ****  ****    0 ROOT
