@<TRIPOS>MOLECULE
MOL
  189   185     1     0     0
SMALL
resp


@<TRIPOS>ATOM
      1 C1          0.6170   -4.0170    5.7990 c3        1 MOL     -0.382394
      2 C2          1.3350   -3.3120    4.5810 c         1 MOL      0.684377
      3 O1          1.3750   -2.1100    4.2990 o         1 MOL     -0.596754
      4 H1          1.2770   -4.0030    6.6670 hc        1 MOL      0.105344
      5 H2         -0.3040   -3.4850    6.0360 hc        1 MOL      0.105344
      6 H3          0.3850   -5.0490    5.5360 hc        1 MOL      0.105344
      7 N1          1.9160   -4.1840    3.7510 n         1 MOL     -0.457647
      8 C3          2.5550   -3.9920    2.4650 c3        1 MOL      0.224471
      9 C4          2.2460   -5.0770    1.4250 c         1 MOL      0.583045
     10 O2          2.0570   -6.2320    1.7550 o         1 MOL     -0.564044
     11 C5          4.0540   -3.7900    2.6350 c3        1 MOL     -0.355325
     12 C6          4.7090   -2.8310    1.6470 c         1 MOL      0.841451
     13 O3          4.0310   -2.2730    0.7850 o         1 MOL     -0.715996
     14 O4          5.8890   -2.3950    1.7710 o         1 MOL     -0.715996
     15 H4          1.7450   -5.1530    3.9530 hn        1 MOL      0.234203
     16 H5          2.1940   -3.0530    2.0510 h1        1 MOL      0.011206
     17 H6          4.4820   -4.7830    2.5130 hc        1 MOL      0.073441
     18 H7          4.1930   -3.4830    3.6790 hc        1 MOL      0.073441
     19 N2          2.2070   -4.6980    0.2100 n         1 MOL     -0.407304
     20 C7          1.8180   -5.5650   -0.8770 c3        1 MOL     -0.003492
     21 C8          2.5840   -5.2410   -2.1820 c         1 MOL      0.592981
     22 O5          2.6310   -6.0550   -3.1380 o         1 MOL     -0.573954
     23 C9          0.3000   -5.4300   -1.0600 c3        1 MOL      0.136937
     24 C10        -0.5440   -6.0910    0.0790 c3        1 MOL     -0.077113
     25 C11        -0.2800   -6.1160   -2.3330 c3        1 MOL     -0.255921
     26 C12        -0.3630   -7.6140    0.2220 c3        1 MOL     -0.427658
     27 H8          2.3210   -3.7010    0.0520 hn        1 MOL      0.123205
     28 H9          2.1500   -6.5910   -0.7180 h1        1 MOL      0.095133
     29 H10        -0.0770   -4.3980   -1.0800 hc        1 MOL      0.042874
     30 H11        -1.5960   -5.9380   -0.1570 hc        1 MOL      0.072620
     31 H12        -0.2760   -5.6310    1.0270 hc        1 MOL      0.072620
     32 H13         0.0920   -7.0910   -2.6310 hc        1 MOL      0.064060
     33 H14        -1.3510   -6.2510   -2.2160 hc        1 MOL      0.064060
     34 H15        -0.0290   -5.4470   -3.1520 hc        1 MOL      0.064060
     35 H16         0.6600   -7.9900    0.1690 hc        1 MOL      0.100952
     36 H17        -0.7620   -7.9170    1.1870 hc        1 MOL      0.100952
     37 H18        -1.1160   -8.1080   -0.3950 hc        1 MOL      0.100952
     38 N3          3.3550   -4.1440   -2.1840 n         1 MOL     -0.503317
     39 C13         4.1750   -3.6520   -3.3220 c3        1 MOL      0.037582
     40 C14         5.5280   -2.9480   -2.9930 c         1 MOL      0.291634
     41 O6          6.4220   -2.7490   -3.8240 o         1 MOL     -0.509936
     42 C15         3.3230   -2.6830   -4.1130 c3        1 MOL     -0.266712
     43 C16         2.6190   -1.5450   -3.3240 c         1 MOL      0.746240
     44 O7          3.1930   -1.0490   -2.3400 o         1 MOL     -0.694647
     45 O8          1.5320   -1.0780   -3.7840 o         1 MOL     -0.694647
     46 H19         3.2920   -3.5010   -1.4100 hn        1 MOL      0.388060
     47 H20         4.3110   -4.3470   -4.1460 h1        1 MOL      0.112794
     48 H21         2.4970   -3.2380   -4.5450 hc        1 MOL      0.080609
     49 H22         3.9140   -2.2130   -4.9000 hc        1 MOL      0.080609
     50 N4          5.6630   -2.4930   -1.7460 n         1 MOL     -0.038815
     51 C17         6.8980   -1.8910   -1.3230 c3        1 MOL     -0.122420
     52 C18         7.1540   -0.4470   -1.8990 c         1 MOL      0.407260
     53 O9          8.2990    0.0050   -1.9980 o         1 MOL     -0.597811
     54 H23         5.0480   -2.6480   -0.9660 hn        1 MOL      0.047798
     55 H24         7.7470   -2.5590   -1.4890 h1        1 MOL      0.086621
     56 H25         6.8380   -1.7870   -0.2370 h1        1 MOL      0.086621
     57 N5          6.1270    0.3700   -2.1370 n         1 MOL     -0.042007
     58 C19         6.1650    1.6640   -2.7460 c3        1 MOL     -0.129755
     59 C20         6.8110    2.7400   -1.7910 c         1 MOL      0.499496
     60 O10         7.2510    3.7630   -2.2870 o         1 MOL     -0.568166
     61 C21         4.8050    2.1700   -3.2880 c3        1 MOL     -0.367642
     62 C22         3.6270    2.2020   -2.2840 c         1 MOL      0.856453
     63 O11         3.7140    1.8000   -1.0950 o         1 MOL     -0.749913
     64 O12         2.5360    2.6840   -2.7040 o         1 MOL     -0.749913
     65 H26         5.2050   -0.0110   -1.9740 hn        1 MOL      0.201748
     66 H27         6.7500    1.5070   -3.6520 h1        1 MOL      0.106631
     67 H28         4.5990    1.4020   -4.0230 hc        1 MOL      0.115444
     68 H29         5.0270    3.1780   -3.6310 hc        1 MOL      0.115444
     69 N6          6.6770    2.6100   -0.4710 n         1 MOL     -0.170260
     70 C23         7.0690    3.5860    0.6030 c3        1 MOL     -0.191060
     71 C24         5.9590    4.4920    1.0690 c         1 MOL      0.520375
     72 O13         6.1830    5.5580    1.7070 o         1 MOL     -0.602796
     73 H30         6.1350    1.8490   -0.0840 hn        1 MOL      0.126370
     74 H31         8.0110    4.0650    0.3560 h1        1 MOL      0.101202
     75 H32         7.2350    3.0300    1.5220 h1        1 MOL      0.101202
     76 N7          4.7360    4.0130    0.9020 n         1 MOL     -0.154274
     77 C25         3.4990    4.5660    1.3250 c3        1 MOL     -0.115142
     78 C26         2.5030    3.4660    1.8610 c         1 MOL      0.416169
     79 O14         2.8600    2.2390    1.7760 o         1 MOL     -0.544574
     80 C27         2.8280    5.3700    0.1780 c3        1 MOL      0.135507
     81 C28         3.4950    6.7310   -0.0420 c3        1 MOL     -0.354165
     82 C29         2.6100    7.6630   -0.8840 c         1 MOL      0.687604
     83 N8          2.6570    7.5340   -2.1680 n         1 MOL     -0.825519
     84 O15         1.7790    8.3390   -0.3360 o         1 MOL     -0.588369
     85 H33         4.6330    3.1790    0.3480 hn        1 MOL      0.186791
     86 H34         3.6360    5.3360    2.0950 h1        1 MOL      0.089888
     87 H35         1.7820    5.4990    0.4600 hc        1 MOL      0.025316
     88 H36         2.8230    4.8410   -0.7770 hc        1 MOL      0.025316
     89 H37         4.4610    6.5250   -0.5020 hc        1 MOL      0.093551
     90 H38         3.7120    7.1420    0.9450 hc        1 MOL      0.093551
     91 H39         3.3210    6.8530   -2.5050 hn        1 MOL      0.383106
     92 H40         1.9570    7.9670   -2.7610 hn        1 MOL      0.383106
     93 N9          1.3300    3.8370    2.2740 n         1 MOL     -0.425534
     94 C30         0.2030    2.9350    2.5440 c3        1 MOL      0.089712
     95 C31        -1.1070    3.2850    1.7300 c         1 MOL      0.442141
     96 O16        -1.5830    4.4030    1.6180 o         1 MOL     -0.571596
     97 C32        -0.0740    2.7090    4.0500 c3        1 MOL      0.398558
     98 C33        -0.6930    3.9210    4.7620 c3        1 MOL     -0.319424
     99 C34        -0.8770    1.4460    4.3310 c3        1 MOL     -0.319424
    100 H41         1.1790    4.8240    2.4680 hn        1 MOL      0.291810
    101 H42         0.4200    1.9250    2.2040 h1        1 MOL      0.017834
    102 H43         0.8730    2.5300    4.5480 hc        1 MOL     -0.056982
    103 H44        -0.5890    3.8060    5.8440 hc        1 MOL      0.050845
    104 H45        -0.0960    4.7890    4.4820 hc        1 MOL      0.050845
    105 H46        -1.7180    3.9200    4.4180 hc        1 MOL      0.050845
    106 H47        -0.4580    0.5130    3.9360 hc        1 MOL      0.050845
    107 H48        -1.2310    1.3210    5.3500 hc        1 MOL      0.050845
    108 H49        -1.7470    1.6580    3.7070 hc        1 MOL      0.050845
    109 N10        -1.6230    2.2840    1.0380 n         1 MOL     -0.124666
    110 C35        -2.7780    2.4220    0.1440 c3        1 MOL      0.077799
    111 C36        -3.9910    2.1220    0.9310 c         1 MOL      0.328190
    112 O17        -3.9560    1.3650    1.9030 o         1 MOL     -0.314716
    113 C37        -2.5990    1.4260   -0.9860 c3        1 MOL     -0.229037
    114 C38        -3.6750    1.5710   -2.0900 c         1 MOL      0.666615
    115 N11        -3.6930    2.6960   -2.7500 n         1 MOL     -0.761143
    116 O18        -4.6530    0.8510   -2.1990 o         1 MOL     -0.474705
    117 H50        -1.1890    1.3940    1.1770 hn        1 MOL      0.131124
    118 H51        -2.8650    3.4210   -0.2820 h1        1 MOL      0.039142
    119 H52        -2.6620    0.4380   -0.5460 hc        1 MOL      0.075782
    120 H53        -1.5810    1.5410   -1.3580 hc        1 MOL      0.075782
    121 H54        -2.8580    3.2480   -2.6180 hn        1 MOL      0.360788
    122 H55        -4.4190    2.9750   -3.3830 hn        1 MOL      0.360788
    123 N12        -5.1170    2.6680    0.4470 n         1 MOL     -0.316434
    124 C39        -6.4570    2.2900    1.0200 c3        1 MOL      0.084913
    125 C40        -6.7590    0.8020    0.9880 c         1 MOL      0.606203
    126 O19        -7.2480    0.2540    1.9850 o         1 MOL     -0.612497
    127 C41        -7.5690    3.1630    0.3200 c3        1 MOL     -0.133153
    128 C42        -8.0530    2.7540   -1.0390 ca        1 MOL      0.129843
    129 C43        -9.1840    1.9870   -1.2790 ca        1 MOL     -0.205280
    130 C44        -7.2960    3.2070   -2.1710 ca        1 MOL     -0.205280
    131 C45        -9.4740    1.5340   -2.5710 ca        1 MOL     -0.282664
    132 C46        -7.6060    2.8060   -3.4440 ca        1 MOL     -0.282664
    133 C47        -8.6820    1.9480   -3.6710 ca        1 MOL      0.349258
    134 O20        -8.9590    1.5350   -4.9230 oh        1 MOL     -0.492988
    135 H56        -5.0990    3.2360   -0.3960 hn        1 MOL      0.211211
    136 H57        -6.4860    2.6830    2.0420 h1        1 MOL      0.078940
    137 H58        -7.1000    4.1360    0.1740 hc        1 MOL      0.021160
    138 H59        -8.4550    3.1710    0.9620 hc        1 MOL      0.021160
    139 H60        -9.7490    1.6700   -0.4160 ha        1 MOL      0.144525
    140 H61        -6.5420    3.9670   -2.0370 ha        1 MOL      0.144525
    141 H62       -10.3500    0.9520   -2.8300 ha        1 MOL      0.157742
    142 H63        -6.9620    3.0270   -4.2910 ha        1 MOL      0.157742
    143 H64        -9.6810    0.9120   -4.9840 ho        1 MOL      0.392015
    144 N13        -6.4060    0.0490   -0.0580 n         1 MOL     -0.316294
    145 C48        -6.4960   -1.4480   -0.0140 c3        1 MOL     -0.139744
    146 C49        -5.3540   -2.1570    0.7480 c         1 MOL      0.386073
    147 O21        -5.2830   -3.3520    0.9310 o         1 MOL     -0.534467
    148 C50        -6.5070   -2.0540   -1.4150 c3        1 MOL     -0.010396
    149 C51        -7.6370   -1.6350   -2.3390 c3        1 MOL     -0.006765
    150 C52        -7.7440   -2.4080   -3.6240 c         1 MOL      0.665872
    151 O22        -6.8090   -2.1650   -4.4490 o         1 MOL     -0.738844
    152 O23        -8.7480   -3.1690   -3.8720 o         1 MOL     -0.738844
    153 H65        -5.8260    0.5130   -0.7420 hn        1 MOL      0.274198
    154 H66        -7.4300   -1.7000    0.4970 h1        1 MOL      0.147931
    155 H67        -6.5440   -3.1310   -1.2830 hc        1 MOL      0.040595
    156 H68        -5.6500   -1.7800   -2.0330 hc        1 MOL      0.040595
    157 H69        -7.6460   -0.5720   -2.5950 hc        1 MOL     -0.039513
    158 H70        -8.5510   -1.8530   -1.7830 hc        1 MOL     -0.039513
    159 N14        -4.4560   -1.3850    1.3510 n         1 MOL     -0.000821
    160 C53        -3.5560   -1.8100    2.4900 c3        1 MOL      0.034877
    161 C54        -4.0890   -1.4380    3.8400 c         1 MOL      0.357721
    162 O24        -4.0090   -2.2040    4.8390 o         1 MOL     -0.582927
    163 C55        -2.1490   -1.3150    2.3790 c3        1 MOL      0.086533
    164 C56        -1.1170   -2.1840    1.6130 c3        1 MOL     -0.312066
    165 C57        -0.0340   -1.2830    0.9450 c         1 MOL      0.933185
    166 O25         0.1950   -0.1170    1.3500 o         1 MOL     -0.755703
    167 O26         0.7340   -1.7470    0.1120 o         1 MOL     -0.755703
    168 H71        -4.4930   -0.3890    1.1990 hn        1 MOL     -0.141755
    169 H72        -3.5360   -2.8910    2.4880 h1        1 MOL      0.088568
    170 H73        -1.7490   -1.2120    3.3810 hc        1 MOL      0.041071
    171 H74        -2.1640   -0.3430    1.8700 hc        1 MOL      0.041071
    172 H75        -1.6220   -2.9090    0.9810 hc        1 MOL      0.037526
    173 H76        -0.7270   -2.9250    2.3120 hc        1 MOL      0.037526
    174 N15        -4.8540   -0.3590    3.9490 n         1 MOL      0.032961
    175 C58        -5.4510    0.0610    5.2380 c3        1 MOL     -0.375455
    176 H77        -4.6710    0.1160    5.9970 h1        1 MOL      0.123497
    177 H78        -5.9150    1.0410    5.1220 h1        1 MOL      0.123497
    178 H79        -6.2040   -0.6640    5.5440 h1        1 MOL      0.123497
    179 H80        -4.8570    0.2120    3.1180 hn        1 MOL      0.046652
    180 Ca1         2.6720   -0.1310    0.3750 Ca        1 MOL      1.749391
    181 O27         2.8220   -0.3500    3.0600 oh        1 MOL     -0.901187
    182 H81         2.3210   -1.0300    3.5100 ho        1 MOL      0.426606
    183 H82         2.8760    0.3710    3.7010 ho        1 MOL      0.426606
    184 O28         5.5330   -0.0510    0.9030 oh        1 MOL     -0.901187
    185 H83         5.6770   -0.9870    0.9940 ho        1 MOL      0.426606
    186 H84         5.8870    0.3240    1.7140 ho        1 MOL      0.426606
    187 O29         0.9610    0.6670   -1.8030 oh        1 MOL     -0.901187
    188 H85         1.1590   -0.0150   -2.4480 ho        1 MOL      0.426606
    189 H86         1.2640    1.4790   -2.2120 ho        1 MOL      0.426606
@<TRIPOS>BOND
     1    1    2 1   
     2    1    4 1   
     3    1    5 1   
     4    1    6 1   
     5    2    3 2   
     6    2    7 1   
     7    7    8 1   
     8    7   15 1   
     9    8    9 1   
    10    8   11 1   
    11    8   16 1   
    12    9   10 2   
    13    9   19 1   
    14   11   12 1   
    15   11   17 1   
    16   11   18 1   
    17   12   13 1   
    18   12   14 1   
    19   19   20 1   
    20   19   27 1   
    21   20   21 1   
    22   20   23 1   
    23   20   28 1   
    24   21   22 2   
    25   21   38 1   
    26   23   24 1   
    27   23   25 1   
    28   23   29 1   
    29   24   26 1   
    30   24   30 1   
    31   24   31 1   
    32   25   32 1   
    33   25   33 1   
    34   25   34 1   
    35   26   35 1   
    36   26   36 1   
    37   26   37 1   
    38   38   39 1   
    39   38   46 1   
    40   39   40 1   
    41   39   42 1   
    42   39   47 1   
    43   40   41 2   
    44   40   50 1   
    45   42   43 1   
    46   42   48 1   
    47   42   49 1   
    48   43   44 1   
    49   43   45 1   
    50   50   51 1   
    51   50   54 1   
    52   51   52 1   
    53   51   55 1   
    54   51   56 1   
    55   52   53 2   
    56   52   57 1   
    57   57   58 1   
    58   57   65 1   
    59   58   59 1   
    60   58   61 1   
    61   58   66 1   
    62   59   60 2   
    63   59   69 1   
    64   61   62 1   
    65   61   67 1   
    66   61   68 1   
    67   62   63 1   
    68   62   64 1   
    69   69   70 1   
    70   69   73 1   
    71   70   71 1   
    72   70   74 1   
    73   70   75 1   
    74   71   72 2   
    75   71   76 1   
    76   76   77 1   
    77   76   85 1   
    78   77   78 1   
    79   77   80 1   
    80   77   86 1   
    81   78   79 2   
    82   78   93 1   
    83   80   81 1   
    84   80   87 1   
    85   80   88 1   
    86   81   82 1   
    87   81   89 1   
    88   81   90 1   
    89   82   83 1   
    90   82   84 2   
    91   83   91 1   
    92   83   92 1   
    93   93   94 1   
    94   93  100 1   
    95   94   95 1   
    96   94   97 1   
    97   94  101 1   
    98   95   96 2   
    99   95  109 1   
   100   97   98 1   
   101   97   99 1   
   102   97  102 1   
   103   98  103 1   
   104   98  104 1   
   105   98  105 1   
   106   99  106 1   
   107   99  107 1   
   108   99  108 1   
   109  109  110 1   
   110  109  117 1   
   111  110  111 1   
   112  110  113 1   
   113  110  118 1   
   114  111  112 2   
   115  111  123 1   
   116  113  114 1   
   117  113  119 1   
   118  113  120 1   
   119  114  115 1   
   120  114  116 2   
   121  115  121 1   
   122  115  122 1   
   123  123  124 1   
   124  123  135 1   
   125  124  125 1   
   126  124  127 1   
   127  124  136 1   
   128  125  126 2   
   129  125  144 1   
   130  127  128 1   
   131  127  137 1   
   132  127  138 1   
   133  128  129 ar  
   134  128  130 ar  
   135  129  131 ar  
   136  129  139 1   
   137  130  132 ar  
   138  130  140 1   
   139  131  133 ar  
   140  131  141 1   
   141  132  133 ar  
   142  132  142 1   
   143  133  134 1   
   144  134  143 1   
   145  144  145 1   
   146  144  153 1   
   147  145  146 1   
   148  145  148 1   
   149  145  154 1   
   150  146  147 2   
   151  146  159 1   
   152  148  149 1   
   153  148  155 1   
   154  148  156 1   
   155  149  150 1   
   156  149  157 1   
   157  149  158 1   
   158  150  151 1   
   159  150  152 1   
   160  159  160 1   
   161  159  168 1   
   162  160  161 1   
   163  160  163 1   
   164  160  169 1   
   165  161  162 2   
   166  161  174 1   
   167  163  164 1   
   168  163  170 1   
   169  163  171 1   
   170  164  165 1   
   171  164  172 1   
   172  164  173 1   
   173  165  166 1   
   174  165  167 1   
   175  174  175 1   
   176  174  179 1   
   177  175  176 1   
   178  175  177 1   
   179  175  178 1   
   180  181  182 1   
   181  181  183 1   
   182  184  185 1   
   183  184  186 1   
   184  187  188 1   
   185  187  189 1   
@<TRIPOS>SUBSTRUCTURE
     1 MOL         1 TEMP              0 ****  ****    0 ROOT
