@<TRIPOS>MOLECULE
MOL
  179   176     1     0     0
SMALL
resp


@<TRIPOS>ATOM
      1 C1          1.6650    3.9060    4.9250 c3        1 MOL     -0.474801
      2 C2          1.1170    3.3290    3.5500 c         1 MOL      0.674717
      3 O1          1.9540    3.0870    2.6820 o         1 MOL     -0.586295
      4 H1          0.8260    4.2110    5.5510 hc        1 MOL      0.115070
      5 H2          2.2400    3.1360    5.4400 hc        1 MOL      0.115070
      6 H3          2.3040    4.7680    4.7290 hc        1 MOL      0.115070
      7 N1         -0.1620    3.2170    3.4780 n         1 MOL     -0.451231
      8 C3         -0.9180    2.7240    2.3640 c3        1 MOL     -0.014124
      9 C4         -1.2380    3.9320    1.3840 c         1 MOL      0.462562
     10 O2         -2.2700    4.5840    1.5540 o         1 MOL     -0.465362
     11 C5         -2.1720    2.0710    2.8380 c3        1 MOL     -0.274340
     12 C6         -2.8600    1.1780    1.7690 c         1 MOL      0.858286
     13 O3         -2.3760    1.0980    0.5920 o         1 MOL     -0.775682
     14 O4         -3.9250    0.6290    2.1290 o         1 MOL     -0.775682
     15 H4         -0.7640    3.3540    4.2760 hn        1 MOL      0.314538
     16 H5         -0.3190    2.0060    1.7920 h1        1 MOL      0.049095
     17 H6         -2.9630    2.7760    3.1030 hc        1 MOL      0.088709
     18 H7         -1.9050    1.4290    3.6680 hc        1 MOL      0.088709
     19 N2         -0.4100    4.0920    0.3460 n         1 MOL     -0.349241
     20 C7         -0.4500    5.3980   -0.4310 c3        1 MOL      0.053215
     21 C8         -1.7290    5.7610   -1.2290 c         1 MOL      0.393220
     22 O5         -2.1220    6.9070   -1.4790 o         1 MOL     -0.529629
     23 C9          0.7780    5.5250   -1.3080 c3        1 MOL     -0.433966
     24 C10         2.1310    5.4720   -0.5600 c3        1 MOL      0.095945
     25 C11         2.1130    6.5930    0.5640 c3        1 MOL     -0.033975
     26 C12         3.4900    6.8820    1.2010 c3        1 MOL     -0.090287
     27 N3          3.2910    7.3840    2.5820 n4        1 MOL     -0.248126
     28 H8          0.4300    3.5670    0.1640 hn        1 MOL      0.314388
     29 H9         -0.5190    6.1400    0.3700 h1        1 MOL      0.045543
     30 H10         0.7350    6.4910   -1.8110 hc        1 MOL      0.155158
     31 H11         0.7990    4.6890   -2.0050 hc        1 MOL      0.155158
     32 H12         2.9630    5.6420   -1.2320 hc        1 MOL      0.043919
     33 H13         2.3110    4.4770   -0.1590 hc        1 MOL      0.043919
     34 H14         1.4860    6.2140    1.3750 hc        1 MOL      0.044158
     35 H15         1.6860    7.5300    0.2320 hc        1 MOL      0.044158
     36 H16         3.8560    7.5650    0.4390 hx        1 MOL      0.114467
     37 H17         4.1040    5.9780    1.1760 hx        1 MOL      0.114467
     38 H18         4.1000    7.4740    3.1860 hn        1 MOL      0.301928
     39 H19         2.9640    8.3380    2.5380 hn        1 MOL      0.301928
     40 H20         2.6540    6.8370    3.1360 hn        1 MOL      0.301928
     41 N4         -2.3320    4.6930   -1.7450 n         1 MOL     -0.085320
     42 C13        -3.5980    4.6480   -2.4090 c3        1 MOL     -0.134699
     43 C14        -4.7700    4.1560   -1.4670 c         1 MOL      0.434032
     44 O6         -5.9290    4.0090   -1.8970 o         1 MOL     -0.548690
     45 C15        -3.5450    3.7510   -3.6920 c3        1 MOL     -0.079126
     46 C16        -2.9340    2.4330   -3.5970 c         1 MOL      0.709111
     47 O7         -2.7080    1.8730   -4.7430 o         1 MOL     -0.716303
     48 O8         -2.7190    1.8760   -2.5030 o         1 MOL     -0.716303
     49 H21        -1.8700    3.8090   -1.5670 hn        1 MOL      0.131036
     50 H22        -3.9450    5.6580   -2.6450 h1        1 MOL      0.132566
     51 H23        -2.9800    4.2940   -4.4580 hc        1 MOL      0.048777
     52 H24        -4.5520    3.6760   -4.1010 hc        1 MOL      0.048777
     53 N5         -4.5600    3.8270   -0.1740 n         1 MOL     -0.055362
     54 C17        -5.6250    3.4450    0.7240 c3        1 MOL     -0.295748
     55 C18        -6.2510    2.0430    0.4920 c         1 MOL      0.638829
     56 O9         -7.2490    1.7470    1.0920 o         1 MOL     -0.598521
     57 H25        -3.6280    3.8830    0.2310 hn        1 MOL      0.060404
     58 H26        -6.4340    4.1680    0.6550 h1        1 MOL      0.128160
     59 H27        -5.2570    3.4370    1.7570 h1        1 MOL      0.128160
     60 N6         -5.6930    1.2240   -0.4060 n         1 MOL     -0.280598
     61 C19        -6.4140    0.0530   -0.9400 c3        1 MOL     -0.106880
     62 C20        -6.4490   -1.2130    0.0200 c         1 MOL      0.351359
     63 O10        -6.9280   -2.2820   -0.4060 o         1 MOL     -0.492877
     64 C21        -5.9100   -0.2230   -2.4040 c3        1 MOL     -0.195150
     65 C22        -4.6600   -1.1000   -2.3860 c         1 MOL      0.709005
     66 N7         -4.5410   -1.9150   -3.4260 n         1 MOL     -0.828410
     67 O11        -3.7980   -1.0420   -1.5030 o         1 MOL     -0.630294
     68 H28        -4.8140    1.4900   -0.8130 hn        1 MOL      0.248216
     69 H29        -7.4670    0.3310   -0.9960 h1        1 MOL      0.140419
     70 H30        -5.6820    0.7260   -2.9010 hc        1 MOL      0.094090
     71 H31        -6.6390   -0.7760   -2.9830 hc        1 MOL      0.094090
     72 H32        -5.3110   -2.0180   -4.0760 hn        1 MOL      0.387706
     73 H33        -3.7790   -2.5770   -3.4430 hn        1 MOL      0.387706
     74 N8         -5.9040   -1.1050    1.2460 n         1 MOL     -0.137172
     75 C23        -5.9810   -2.1800    2.2270 c3        1 MOL     -0.373592
     76 C24        -4.6690   -2.9040    2.2630 c         1 MOL      0.720722
     77 O12        -4.4270   -3.7390    3.1550 o         1 MOL     -0.646199
     78 H34        -5.4910   -0.2120    1.4460 hn        1 MOL      0.326506
     79 H35        -6.8070   -2.8700    2.0530 h1        1 MOL      0.157306
     80 H36        -6.1120   -1.6450    3.1680 h1        1 MOL      0.157306
     81 N9         -3.6740   -2.6010    1.4590 n         1 MOL     -0.321604
     82 C25        -2.4970   -3.3920    1.3040 c3        1 MOL      0.238603
     83 C26        -1.2210   -2.5700    1.2630 c         1 MOL      0.336758
     84 O13        -1.3300   -1.4540    0.7700 o         1 MOL     -0.548893
     85 C27        -2.5610   -4.1720    0.0120 c3        1 MOL      0.080198
     86 C28        -3.5200   -5.3370    0.0050 ca        1 MOL     -0.106772
     87 C29        -4.7030   -5.1630   -0.7070 ca        1 MOL     -0.100660
     88 C30        -3.2590   -6.4590    0.7800 ca        1 MOL     -0.100660
     89 C31        -5.6670   -6.1660   -0.6570 ca        1 MOL     -0.289807
     90 C32        -4.3120   -7.4340    0.9290 ca        1 MOL     -0.289807
     91 C33        -5.5240   -7.3080    0.1840 ca        1 MOL      0.377876
     92 O14        -6.4810   -8.2700    0.3020 oh        1 MOL     -0.514189
     93 H37        -3.8170   -1.8200    0.8300 hn        1 MOL      0.203172
     94 H38        -2.4120   -4.1000    2.1300 h1        1 MOL      0.026938
     95 H39        -1.5980   -4.6290   -0.2130 hc        1 MOL      0.003459
     96 H40        -2.8090   -3.5440   -0.8410 hc        1 MOL      0.003459
     97 H41        -4.8900   -4.2620   -1.2590 ha        1 MOL      0.111889
     98 H42        -2.3200   -6.6110    1.2750 ha        1 MOL      0.111889
     99 H43        -6.5770   -6.1110   -1.2420 ha        1 MOL      0.150857
    100 H44        -4.2240   -8.2500    1.6210 ha        1 MOL      0.150857
    101 H45        -6.3200   -8.9540    0.9600 ho        1 MOL      0.374817
    102 N10        -0.0870   -2.9840    1.7950 n         1 MOL     -0.443111
    103 C34         1.3050   -2.4470    1.7090 c3        1 MOL     -0.005688
    104 C35         2.1860   -3.4070    0.8960 c         1 MOL      0.442500
    105 O15         2.3760   -4.5900    1.1910 o         1 MOL     -0.513126
    106 C36         1.8490   -2.2120    3.1730 c3        1 MOL     -0.002146
    107 C37         1.2000   -0.9110    3.6980 c3        1 MOL     -0.052373
    108 C38         3.3760   -2.1330    3.3220 c3        1 MOL     -0.089380
    109 C39         1.5320   -0.6490    5.2030 c3        1 MOL     -0.261429
    110 H46        -0.2040   -3.7840    2.3980 hn        1 MOL      0.291499
    111 H47         1.3540   -1.4780    1.2110 h1        1 MOL      0.074680
    112 H48         1.5280   -3.0760    3.7620 hc        1 MOL      0.049453
    113 H49         0.1180   -0.9800    3.6420 hc        1 MOL      0.091593
    114 H50         1.5410   -0.0830    3.0730 hc        1 MOL      0.091593
    115 H51         3.7330   -1.9910    4.3460 hc        1 MOL      0.023090
    116 H52         3.8430   -3.0270    2.9090 hc        1 MOL      0.023090
    117 H53         3.6880   -1.2960    2.6900 hc        1 MOL      0.023090
    118 H54         0.7860   -0.0310    5.7040 hc        1 MOL      0.073442
    119 H55         1.6030   -1.5950    5.7380 hc        1 MOL      0.073442
    120 H56         2.5410   -0.2470    5.3060 hc        1 MOL      0.073442
    121 N11         2.6570   -2.8720   -0.2200 n         1 MOL     -0.278955
    122 C40         3.5610   -3.5390   -1.1590 c3        1 MOL     -0.101603
    123 C41         4.9700   -3.5520   -0.6130 c         1 MOL      0.530362
    124 O16         5.2810   -2.9770    0.3890 o         1 MOL     -0.381759
    125 C42         3.6110   -2.8770   -2.4900 c3        1 MOL     -0.213885
    126 O17         4.2310   -1.6060   -2.6080 oh        1 MOL     -0.434277
    127 H57         2.2980   -1.9360   -0.3620 hn        1 MOL      0.414472
    128 H58         3.2370   -4.5800   -1.2560 h1        1 MOL      0.112540
    129 H59         2.5630   -2.7910   -2.7880 h1        1 MOL      0.118461
    130 H60         4.0310   -3.5550   -3.2340 h1        1 MOL      0.118461
    131 H61         4.0270   -1.2400   -3.4760 ho        1 MOL      0.393440
    132 N12         5.9340   -4.1500   -1.3180 n         1 MOL     -0.512080
    133 C43         7.3640   -3.9760   -0.9130 c3        1 MOL      0.138156
    134 C44         7.9640   -2.5560   -1.2420 c         1 MOL      0.402720
    135 O18         8.9220   -2.2550   -0.5400 o         1 MOL     -0.499050
    136 C45         8.1440   -5.1820   -1.4390 c3        1 MOL     -0.120509
    137 H62         5.7640   -4.5770   -2.2200 hn        1 MOL      0.292362
    138 H63         7.3980   -4.1300    0.1650 h1        1 MOL      0.089692
    139 H64         9.1390   -5.2770   -1.0190 hc        1 MOL      0.046074
    140 H65         7.6340   -6.1190   -1.2520 hc        1 MOL      0.046074
    141 H66         8.2690   -5.1320   -2.5210 hc        1 MOL      0.046074
    142 N13         7.4900   -1.7470   -2.2110 n         1 MOL     -0.247568
    143 C46         7.9730   -0.3830   -2.4300 c3        1 MOL      0.010678
    144 C47         7.4180    0.6750   -1.4760 c         1 MOL      0.379313
    145 O19         8.1700    1.4830   -0.9200 o         1 MOL     -0.502017
    146 C48         7.7750    0.1070   -3.9060 c3        1 MOL     -0.311271
    147 H67         6.7110   -2.0360   -2.7840 hn        1 MOL      0.183671
    148 H68         9.0440   -0.5010   -2.2740 h1        1 MOL      0.119898
    149 H69         6.7480    0.3270   -4.1860 hc        1 MOL      0.096271
    150 H70         8.2050    1.1090   -4.0210 hc        1 MOL      0.096271
    151 H71         8.2460   -0.5880   -4.5880 hc        1 MOL      0.096271
    152 N14         6.1400    0.5470   -1.2160 n         1 MOL     -0.136915
    153 C49         5.4140    1.1300   -0.0490 c3        1 MOL     -0.172390
    154 C50         6.0100    0.8070    1.3350 c         1 MOL      0.486669
    155 O20         6.0890    1.6560    2.1950 o         1 MOL     -0.556623
    156 C51         3.9240    0.8890   -0.0430 c3        1 MOL      0.213249
    157 C52         3.1360    1.4970   -1.2570 c3        1 MOL     -0.122481
    158 C53         1.6580    1.0200   -1.2110 c         1 MOL      0.818832
    159 O21         1.3120   -0.0970   -0.8730 o         1 MOL     -0.819343
    160 O22         0.7090    1.8310   -1.4840 o         1 MOL     -0.819343
    161 H72         5.6330   -0.1790   -1.7000 hn        1 MOL      0.141739
    162 H73         5.4650    2.2120   -0.0600 h1        1 MOL      0.087421
    163 H74         3.5000    1.3640    0.8430 hc        1 MOL     -0.026427
    164 H75         3.6600   -0.1590    0.0220 hc        1 MOL     -0.026427
    165 H76         3.6040    1.1620   -2.1850 hc        1 MOL     -0.014421
    166 H77         3.2110    2.5830   -1.2120 hc        1 MOL     -0.014421
    167 N15         6.3800   -0.4610    1.6490 n         1 MOL     -0.000390
    168 C54         7.1640   -0.6580    2.8750 c3        1 MOL     -0.308050
    169 H78         8.1770   -0.9660    2.6120 h1        1 MOL      0.116352
    170 H79         7.2030    0.2750    3.4370 h1        1 MOL      0.116352
    171 H80         6.6980   -1.4320    3.4850 h1        1 MOL      0.116352
    172 H81         6.0940   -1.1680    0.9950 hn        1 MOL      0.044718
    173 Ca1        -1.2700    0.0890   -1.4110 Ca        1 MOL      1.782416
    174 O23        -0.9780   -0.1900   -3.9630 oh        1 MOL     -0.883220
    175 H82        -1.6800    0.3130   -4.3800 ho        1 MOL      0.413405
    176 H83        -0.3290   -0.3180   -4.6490 ho        1 MOL      0.413405
    177 O24        -0.2130   -2.5880   -1.8100 oh        1 MOL     -0.883220
    178 H84         0.7220   -2.6600   -1.6080 ho        1 MOL      0.413405
    179 H85        -0.4130   -3.3730   -2.3100 ho        1 MOL      0.413405
@<TRIPOS>BOND
     1    1    2 1   
     2    1    4 1   
     3    1    5 1   
     4    1    6 1   
     5    2    3 2   
     6    2    7 1   
     7    7    8 1   
     8    7   15 1   
     9    8    9 1   
    10    8   11 1   
    11    8   16 1   
    12    9   10 2   
    13    9   19 1   
    14   11   12 1   
    15   11   17 1   
    16   11   18 1   
    17   12   13 1   
    18   12   14 1   
    19   19   20 1   
    20   19   28 1   
    21   20   21 1   
    22   20   23 1   
    23   20   29 1   
    24   21   22 2   
    25   21   41 1   
    26   23   24 1   
    27   23   30 1   
    28   23   31 1   
    29   24   25 1   
    30   24   32 1   
    31   24   33 1   
    32   25   26 1   
    33   25   34 1   
    34   25   35 1   
    35   26   27 1   
    36   26   36 1   
    37   26   37 1   
    38   27   38 1   
    39   27   39 1   
    40   27   40 1   
    41   41   42 1   
    42   41   49 1   
    43   42   43 1   
    44   42   45 1   
    45   42   50 1   
    46   43   44 2   
    47   43   53 1   
    48   45   46 1   
    49   45   51 1   
    50   45   52 1   
    51   46   47 1   
    52   46   48 1   
    53   53   54 1   
    54   53   57 1   
    55   54   55 1   
    56   54   58 1   
    57   54   59 1   
    58   55   56 2   
    59   55   60 1   
    60   60   61 1   
    61   60   68 1   
    62   61   62 1   
    63   61   64 1   
    64   61   69 1   
    65   62   63 2   
    66   62   74 1   
    67   64   65 1   
    68   64   70 1   
    69   64   71 1   
    70   65   66 1   
    71   65   67 2   
    72   66   72 1   
    73   66   73 1   
    74   74   75 1   
    75   74   78 1   
    76   75   76 1   
    77   75   79 1   
    78   75   80 1   
    79   76   77 2   
    80   76   81 1   
    81   81   82 1   
    82   81   93 1   
    83   82   83 1   
    84   82   85 1   
    85   82   94 1   
    86   83   84 2   
    87   83  102 1   
    88   85   86 1   
    89   85   95 1   
    90   85   96 1   
    91   86   87 ar  
    92   86   88 ar  
    93   87   89 ar  
    94   87   97 1   
    95   88   90 ar  
    96   88   98 1   
    97   89   91 ar  
    98   89   99 1   
    99   90   91 ar  
   100   90  100 1   
   101   91   92 1   
   102   92  101 1   
   103  102  103 1   
   104  102  110 1   
   105  103  104 1   
   106  103  106 1   
   107  103  111 1   
   108  104  105 2   
   109  104  121 1   
   110  106  107 1   
   111  106  108 1   
   112  106  112 1   
   113  107  109 1   
   114  107  113 1   
   115  107  114 1   
   116  108  115 1   
   117  108  116 1   
   118  108  117 1   
   119  109  118 1   
   120  109  119 1   
   121  109  120 1   
   122  121  122 1   
   123  121  127 1   
   124  122  123 1   
   125  122  125 1   
   126  122  128 1   
   127  123  124 2   
   128  123  132 1   
   129  125  126 1   
   130  125  129 1   
   131  125  130 1   
   132  126  131 1   
   133  132  133 1   
   134  132  137 1   
   135  133  134 1   
   136  133  136 1   
   137  133  138 1   
   138  134  135 2   
   139  134  142 1   
   140  136  139 1   
   141  136  140 1   
   142  136  141 1   
   143  142  143 1   
   144  142  147 1   
   145  143  144 1   
   146  143  146 1   
   147  143  148 1   
   148  144  145 2   
   149  144  152 1   
   150  146  149 1   
   151  146  150 1   
   152  146  151 1   
   153  152  153 1   
   154  152  161 1   
   155  153  154 1   
   156  153  156 1   
   157  153  162 1   
   158  154  155 2   
   159  154  167 1   
   160  156  157 1   
   161  156  163 1   
   162  156  164 1   
   163  157  158 1   
   164  157  165 1   
   165  157  166 1   
   166  158  159 1   
   167  158  160 1   
   168  167  168 1   
   169  167  172 1   
   170  168  169 1   
   171  168  170 1   
   172  168  171 1   
   173  174  175 1   
   174  174  176 1   
   175  177  178 1   
   176  177  179 1   
@<TRIPOS>SUBSTRUCTURE
     1 MOL         1 TEMP              0 ****  ****    0 ROOT
