@<TRIPOS>MOLECULE
MOL
  189   185     1     0     0
SMALL
resp


@<TRIPOS>ATOM
      1 C1          0.8080   -4.0810    5.8130 c3        1 MOL     -0.412920
      2 C2          1.5340   -3.3330    4.6490 c         1 MOL      0.775200
      3 O1          1.6130   -2.1420    4.6720 o         1 MOL     -0.593908
      4 H1          0.0520   -3.4270    6.2470 hc        1 MOL      0.099162
      5 H2          0.3320   -4.9810    5.4250 hc        1 MOL      0.099162
      6 H3          1.5340   -4.3540    6.5790 hc        1 MOL      0.099162
      7 N1          2.0610   -4.1450    3.7160 n         1 MOL     -0.608443
      8 C3          2.6210   -3.7090    2.4670 c3        1 MOL      0.231506
      9 C4          2.8420   -4.8370    1.5030 c         1 MOL      0.497205
     10 O2          3.2080   -5.9440    2.0040 o         1 MOL     -0.557927
     11 C5          4.0080   -2.9680    2.7890 c3        1 MOL     -0.225324
     12 C6          4.7730   -2.4730    1.5770 c         1 MOL      0.718313
     13 O3          5.9890   -2.3210    1.6740 o         1 MOL     -0.668058
     14 O4          4.1510   -2.0720    0.5440 o         1 MOL     -0.668058
     15 H4          1.8490   -5.1340    3.8310 hn        1 MOL      0.295992
     16 H5          1.9470   -2.9740    2.0200 h1        1 MOL     -0.012844
     17 H6          4.7130   -3.5940    3.3320 hc        1 MOL      0.053975
     18 H7          3.7310   -2.1420    3.4410 hc        1 MOL      0.053975
     19 N2          2.8680   -4.5730    0.1550 n         1 MOL     -0.351986
     20 C7          3.1190   -5.6020   -0.8920 c3        1 MOL     -0.075162
     21 C8          4.0300   -5.0250   -2.0280 c         1 MOL      0.477112
     22 O5          4.2160   -5.8010   -2.9380 o         1 MOL     -0.544932
     23 C9          1.8330   -6.2340   -1.3590 c3        1 MOL      0.182509
     24 C10         0.7670   -5.3080   -1.9350 c3        1 MOL      0.136354
     25 C11         1.1710   -6.9620   -0.1570 c3        1 MOL     -0.215870
     26 C12        -0.5970   -5.8690   -2.3790 c3        1 MOL     -0.317765
     27 H8          2.6300   -3.6440   -0.1620 hn        1 MOL      0.222430
     28 H9          3.6760   -6.4000   -0.3950 h1        1 MOL      0.092407
     29 H10         2.0570   -6.9670   -2.1360 hc        1 MOL     -0.042263
     30 H11         1.1800   -4.8100   -2.8120 hc        1 MOL      0.017662
     31 H12         0.6570   -4.5180   -1.1860 hc        1 MOL      0.017662
     32 H13         0.4690   -7.7170   -0.5030 hc        1 MOL      0.038289
     33 H14         1.8650   -7.4380    0.5350 hc        1 MOL      0.038289
     34 H15         0.5910   -6.2680    0.4610 hc        1 MOL      0.038289
     35 H16        -1.2650   -5.0780   -2.7000 hc        1 MOL      0.066730
     36 H17        -0.4200   -6.4790   -3.2700 hc        1 MOL      0.066730
     37 H18        -0.8850   -6.5030   -1.5470 hc        1 MOL      0.066730
     38 N3          4.3930   -3.7120   -1.9170 n         1 MOL     -0.463004
     39 C13         5.0590   -3.0360   -3.0700 c3        1 MOL      0.208088
     40 C14         6.2950   -2.1840   -2.6620 c         1 MOL      0.276257
     41 O6          7.1630   -2.0050   -3.5080 o         1 MOL     -0.528520
     42 C15         4.0130   -2.3050   -3.8990 c3        1 MOL     -0.300552
     43 C16         3.2550   -1.1990   -3.1700 c         1 MOL      0.766698
     44 O7          3.6310   -0.6650   -2.1100 o         1 MOL     -0.741211
     45 O8          2.0960   -0.9320   -3.6420 o         1 MOL     -0.741211
     46 H19         4.1790   -3.1790   -1.0830 hn        1 MOL      0.342950
     47 H20         5.3600   -3.8350   -3.7490 h1        1 MOL      0.049873
     48 H21         3.2810   -2.9410   -4.3980 hc        1 MOL      0.080548
     49 H22         4.6750   -1.8210   -4.6220 hc        1 MOL      0.080548
     50 N4          6.4210   -1.7860   -1.4090 n         1 MOL     -0.059900
     51 C17         7.6400   -1.1470   -0.8540 c3        1 MOL     -0.133214
     52 C18         7.7900    0.3180   -1.3140 c         1 MOL      0.382998
     53 O9          8.8780    0.8150   -1.4450 o         1 MOL     -0.556819
     54 H23         5.6790   -2.1050   -0.7940 hn        1 MOL      0.052233
     55 H24         8.5650   -1.6960   -1.0300 h1        1 MOL      0.097032
     56 H25         7.5050   -1.1270    0.2310 h1        1 MOL      0.097032
     57 N5          6.6770    0.9810   -1.6720 n         1 MOL     -0.096191
     58 C19         6.6670    2.3690   -2.0730 c3        1 MOL     -0.070315
     59 C20         6.7620    3.4330   -0.9750 c         1 MOL      0.407602
     60 O10         7.1790    4.5730   -1.1990 o         1 MOL     -0.544238
     61 C21         5.4070    2.7020   -2.9220 c3        1 MOL     -0.168362
     62 C22         4.0520    2.5380   -2.3140 c         1 MOL      0.776819
     63 O11         3.9940    2.1120   -1.1580 o         1 MOL     -0.707616
     64 O12         3.0630    2.9450   -2.9860 o         1 MOL     -0.707616
     65 H26         5.7610    0.5720   -1.5620 hn        1 MOL      0.210749
     66 H27         7.5380    2.5830   -2.7060 h1        1 MOL      0.102189
     67 H28         5.4390    2.0410   -3.7840 hc        1 MOL      0.033871
     68 H29         5.4810    3.7250   -3.3020 hc        1 MOL      0.033871
     69 N6          6.3630    3.0920    0.2570 n         1 MOL     -0.135363
     70 C23         6.3460    4.0210    1.3830 c3        1 MOL     -0.229706
     71 C24         5.0590    4.7940    1.6040 c         1 MOL      0.690872
     72 O13         5.0010    5.6720    2.4480 o         1 MOL     -0.633080
     73 H30         6.0860    2.1310    0.3870 hn        1 MOL      0.158254
     74 H31         7.0750    4.8170    1.2040 h1        1 MOL      0.083473
     75 H32         6.5380    3.5240    2.3440 h1        1 MOL      0.083473
     76 N7          3.9520    4.3510    0.9930 n         1 MOL     -0.415803
     77 C25         2.5560    4.7350    1.4120 c3        1 MOL     -0.084871
     78 C26         1.5390    3.5420    1.2330 c         1 MOL      0.479555
     79 O14         2.0090    2.4210    1.0690 o         1 MOL     -0.477442
     80 C27         2.0430    5.8980    0.5050 c3        1 MOL      0.000484
     81 C28         2.7980    7.1860    0.7660 c3        1 MOL     -0.317035
     82 C29         2.2920    8.3290   -0.0510 c         1 MOL      0.627806
     83 N8          3.0760    9.1520   -0.6850 n         1 MOL     -0.681658
     84 O15         1.1080    8.5650   -0.2510 o         1 MOL     -0.559580
     85 H33         4.0690    3.4960    0.4530 hn        1 MOL      0.294556
     86 H34         2.5470    4.9900    2.4750 h1        1 MOL      0.117352
     87 H35         0.9910    6.1580    0.6580 hc        1 MOL      0.064031
     88 H36         2.1620    5.5770   -0.5320 hc        1 MOL      0.064031
     89 H37         3.8510    6.9900    0.5360 hc        1 MOL      0.105453
     90 H38         2.6790    7.4720    1.8140 hc        1 MOL      0.105453
     91 H39         4.0640    9.1630   -0.4630 hn        1 MOL      0.314179
     92 H40         2.7330    9.9540   -1.1890 hn        1 MOL      0.314179
     93 N9          0.2290    3.7330    1.5420 n         1 MOL     -0.558755
     94 C30        -0.6990    2.6490    1.9520 c3        1 MOL      0.111658
     95 C31        -1.8890    2.7720    1.0410 c         1 MOL      0.486231
     96 O16        -2.6510    3.7120    1.1720 o         1 MOL     -0.570992
     97 C32        -1.0820    2.6650    3.4200 c3        1 MOL      0.181112
     98 C33        -1.9930    1.4880    3.8060 c3        1 MOL     -0.194270
     99 C34         0.1120    2.8370    4.3540 c3        1 MOL     -0.194270
    100 H41        -0.0400    4.7010    1.6990 hn        1 MOL      0.355811
    101 H42        -0.3220    1.6450    1.7680 h1        1 MOL      0.079122
    102 H43        -1.6250    3.6010    3.5240 hc        1 MOL     -0.034788
    103 H44        -2.2850    1.5350    4.8540 hc        1 MOL      0.034050
    104 H45        -2.9170    1.4080    3.2340 hc        1 MOL      0.034050
    105 H46        -1.5170    0.5300    3.5690 hc        1 MOL      0.034050
    106 H47        -0.1560    2.7650    5.4100 hc        1 MOL      0.034050
    107 H48         0.8230    2.0200    4.2530 hc        1 MOL      0.034050
    108 H49         0.6500    3.7590    4.1360 hc        1 MOL      0.034050
    109 N10        -2.0430    1.7840    0.1570 n         1 MOL     -0.374841
    110 C35        -3.1980    1.6830   -0.7260 c3        1 MOL      0.144403
    111 C36        -4.4320    1.1310    0.0340 c         1 MOL      0.195249
    112 O17        -4.2240    0.4500    1.0650 o         1 MOL     -0.214380
    113 C37        -2.8650    0.7820   -1.9310 c3        1 MOL     -0.540332
    114 C38        -4.0860    0.4680   -2.8560 c         1 MOL      0.647156
    115 N11        -4.6960    1.4690   -3.5050 n         1 MOL     -0.715677
    116 O18        -4.4300   -0.7050   -3.0560 o         1 MOL     -0.492927
    117 H50        -1.2520    1.1770    0.0070 hn        1 MOL      0.324890
    118 H51        -3.4410    2.6780   -1.0940 h1        1 MOL      0.062204
    119 H52        -2.4100   -0.1390   -1.5760 hc        1 MOL      0.208731
    120 H53        -2.1690    1.2700   -2.6200 hc        1 MOL      0.208731
    121 H54        -4.2980    2.3960   -3.5020 hn        1 MOL      0.330964
    122 H55        -5.3540    1.2800   -4.2500 hn        1 MOL      0.330964
    123 N12        -5.6200    1.3630   -0.4980 n         1 MOL     -0.155640
    124 C39        -6.8660    0.7130    0.0610 c3        1 MOL     -0.066644
    125 C40        -6.6510   -0.7480    0.4040 c         1 MOL      0.739779
    126 O19        -6.9380   -1.1540    1.5310 o         1 MOL     -0.592252
    127 C41        -8.0560    0.9610   -0.9410 c3        1 MOL     -0.030024
    128 C42        -8.6740    2.3710   -1.0540 ca        1 MOL     -0.010753
    129 C43        -9.8360    2.7060   -0.3290 ca        1 MOL     -0.021402
    130 C44        -8.2060    3.2770   -1.9890 ca        1 MOL     -0.021402
    131 C45       -10.4520    3.9770   -0.4780 ca        1 MOL     -0.439391
    132 C46        -8.7070    4.5630   -2.1620 ca        1 MOL     -0.439391
    133 C47        -9.8650    4.9350   -1.3540 ca        1 MOL      0.486173
    134 O20       -10.3710    6.1000   -1.5250 oh        1 MOL     -0.507174
    135 H56        -5.6460    2.0570   -1.2320 hn        1 MOL      0.121191
    136 H57        -7.1480    1.1840    1.0050 h1        1 MOL      0.058063
    137 H58        -8.8670    0.2740   -0.7210 hc        1 MOL      0.028632
    138 H59        -7.6550    0.7440   -1.9320 hc        1 MOL      0.028632
    139 H60       -10.1730    1.9810    0.3950 ha        1 MOL      0.120159
    140 H61        -7.3680    3.0140   -2.6180 ha        1 MOL      0.120159
    141 H62       -11.3650    4.1940    0.0630 ha        1 MOL      0.172748
    142 H63        -8.2570    5.2890   -2.8310 ha        1 MOL      0.172748
    143 H64        -9.9040    6.6830   -2.1410 ho        1 MOL      0.373972
    144 N13        -6.1970   -1.5740   -0.5780 n         1 MOL     -0.705748
    145 C48        -6.1110   -3.0770   -0.4190 c3        1 MOL     -0.078453
    146 C49        -4.9410   -3.4350    0.4890 c         1 MOL      0.461902
    147 O21        -4.6650   -4.6200    0.5850 o         1 MOL     -0.552411
    148 C50        -5.9920   -3.7020   -1.8020 c3        1 MOL     -0.142926
    149 C51        -7.0020   -3.1710   -2.8580 c3        1 MOL      0.007038
    150 C52        -8.4850   -3.1420   -2.4990 c         1 MOL      0.749540
    151 O22        -9.1710   -2.2600   -3.0340 o         1 MOL     -0.753405
    152 O23        -8.9980   -4.0820   -1.8860 o         1 MOL     -0.753405
    153 H65        -6.0010   -1.1390   -1.4720 hn        1 MOL      0.459351
    154 H66        -7.0460   -3.3560    0.0720 h1        1 MOL      0.168751
    155 H67        -6.1080   -4.7820   -1.6980 hc        1 MOL      0.074279
    156 H68        -4.9880   -3.5600   -2.1890 hc        1 MOL      0.074279
    157 H69        -6.9040   -3.7700   -3.7640 hc        1 MOL     -0.049139
    158 H70        -6.6920   -2.1470   -3.0750 hc        1 MOL     -0.049139
    159 N14        -4.2000   -2.4960    1.0980 n         1 MOL     -0.103687
    160 C53        -3.1580   -2.6420    2.1660 c3        1 MOL     -0.030253
    161 C54        -3.8060   -2.2620    3.4950 c         1 MOL      0.386966
    162 O24        -3.7000   -2.8840    4.5740 o         1 MOL     -0.558131
    163 C55        -1.8310   -1.9250    1.8310 c3        1 MOL      0.020005
    164 C56        -1.1940   -2.3110    0.5080 c3        1 MOL     -0.236792
    165 C57         0.0840   -1.4550    0.3100 c         1 MOL      0.820209
    166 O25         1.1430   -2.0320   -0.1060 o         1 MOL     -0.740275
    167 O26         0.0510   -0.2390    0.3900 o         1 MOL     -0.740275
    168 H71        -4.4240   -1.5490    0.8100 hn        1 MOL      0.081681
    169 H72        -2.9200   -3.7040    2.2150 h1        1 MOL      0.063562
    170 H73        -1.1040   -2.2230    2.5850 hc        1 MOL      0.020911
    171 H74        -2.0240   -0.8600    1.9340 hc        1 MOL      0.020911
    172 H75        -1.8390   -2.0850   -0.3470 hc        1 MOL      0.060815
    173 H76        -0.9010   -3.3600    0.4720 hc        1 MOL      0.060815
    174 N15        -4.4970   -1.1090    3.4590 n         1 MOL      0.017505
    175 C58        -5.1330   -0.5710    4.7390 c3        1 MOL     -0.281577
    176 H77        -5.3790    0.4830    4.6060 h1        1 MOL      0.101784
    177 H78        -6.0420   -1.1310    4.9570 h1        1 MOL      0.101784
    178 H79        -4.4320   -0.6780    5.5670 h1        1 MOL      0.101784
    179 H80        -4.6230   -0.6090    2.5890 hn        1 MOL      0.018392
    180 Ca1         2.6690    0.0490    0.1490 Ca        1 MOL      1.712075
    181 O27         2.1440   -0.0430    2.7770 oh        1 MOL     -0.954039
    182 H81         1.7400   -0.5440    3.4820 ho        1 MOL      0.449388
    183 H82         2.2110    0.8460    3.1220 ho        1 MOL      0.449388
    184 O28         1.2490    1.0590   -2.0700 oh        1 MOL     -0.954039
    185 H83         2.0340    1.5360   -2.3240 ho        1 MOL      0.449388
    186 H84         1.2010    0.3280   -2.6860 ho        1 MOL      0.449388
    187 O29         4.9680    0.6870    1.2160 oh        1 MOL     -0.954039
    188 H85         5.5860   -0.0370    1.2200 ho        1 MOL      0.449388
    189 H86         5.0580    1.0950    2.0800 ho        1 MOL      0.449388
@<TRIPOS>BOND
     1    1    2 1   
     2    1    4 1   
     3    1    5 1   
     4    1    6 1   
     5    2    3 2   
     6    2    7 1   
     7    7    8 1   
     8    7   15 1   
     9    8    9 1   
    10    8   11 1   
    11    8   16 1   
    12    9   10 2   
    13    9   19 1   
    14   11   12 1   
    15   11   17 1   
    16   11   18 1   
    17   12   13 1   
    18   12   14 1   
    19   19   20 1   
    20   19   27 1   
    21   20   21 1   
    22   20   23 1   
    23   20   28 1   
    24   21   22 2   
    25   21   38 1   
    26   23   24 1   
    27   23   25 1   
    28   23   29 1   
    29   24   26 1   
    30   24   30 1   
    31   24   31 1   
    32   25   32 1   
    33   25   33 1   
    34   25   34 1   
    35   26   35 1   
    36   26   36 1   
    37   26   37 1   
    38   38   39 1   
    39   38   46 1   
    40   39   40 1   
    41   39   42 1   
    42   39   47 1   
    43   40   41 2   
    44   40   50 1   
    45   42   43 1   
    46   42   48 1   
    47   42   49 1   
    48   43   44 1   
    49   43   45 1   
    50   50   51 1   
    51   50   54 1   
    52   51   52 1   
    53   51   55 1   
    54   51   56 1   
    55   52   53 2   
    56   52   57 1   
    57   57   58 1   
    58   57   65 1   
    59   58   59 1   
    60   58   61 1   
    61   58   66 1   
    62   59   60 2   
    63   59   69 1   
    64   61   62 1   
    65   61   67 1   
    66   61   68 1   
    67   62   63 1   
    68   62   64 1   
    69   69   70 1   
    70   69   73 1   
    71   70   71 1   
    72   70   74 1   
    73   70   75 1   
    74   71   72 2   
    75   71   76 1   
    76   76   77 1   
    77   76   85 1   
    78   77   78 1   
    79   77   80 1   
    80   77   86 1   
    81   78   79 2   
    82   78   93 1   
    83   80   81 1   
    84   80   87 1   
    85   80   88 1   
    86   81   82 1   
    87   81   89 1   
    88   81   90 1   
    89   82   83 1   
    90   82   84 2   
    91   83   91 1   
    92   83   92 1   
    93   93   94 1   
    94   93  100 1   
    95   94   95 1   
    96   94   97 1   
    97   94  101 1   
    98   95   96 2   
    99   95  109 1   
   100   97   98 1   
   101   97   99 1   
   102   97  102 1   
   103   98  103 1   
   104   98  104 1   
   105   98  105 1   
   106   99  106 1   
   107   99  107 1   
   108   99  108 1   
   109  109  110 1   
   110  109  117 1   
   111  110  111 1   
   112  110  113 1   
   113  110  118 1   
   114  111  112 2   
   115  111  123 1   
   116  113  114 1   
   117  113  119 1   
   118  113  120 1   
   119  114  115 1   
   120  114  116 2   
   121  115  121 1   
   122  115  122 1   
   123  123  124 1   
   124  123  135 1   
   125  124  125 1   
   126  124  127 1   
   127  124  136 1   
   128  125  126 2   
   129  125  144 1   
   130  127  128 1   
   131  127  137 1   
   132  127  138 1   
   133  128  129 ar  
   134  128  130 ar  
   135  129  131 ar  
   136  129  139 1   
   137  130  132 ar  
   138  130  140 1   
   139  131  133 ar  
   140  131  141 1   
   141  132  133 ar  
   142  132  142 1   
   143  133  134 1   
   144  134  143 1   
   145  144  145 1   
   146  144  153 1   
   147  145  146 1   
   148  145  148 1   
   149  145  154 1   
   150  146  147 2   
   151  146  159 1   
   152  148  149 1   
   153  148  155 1   
   154  148  156 1   
   155  149  150 1   
   156  149  157 1   
   157  149  158 1   
   158  150  151 1   
   159  150  152 1   
   160  159  160 1   
   161  159  168 1   
   162  160  161 1   
   163  160  163 1   
   164  160  169 1   
   165  161  162 2   
   166  161  174 1   
   167  163  164 1   
   168  163  170 1   
   169  163  171 1   
   170  164  165 1   
   171  164  172 1   
   172  164  173 1   
   173  165  166 1   
   174  165  167 1   
   175  174  175 1   
   176  174  179 1   
   177  175  176 1   
   178  175  177 1   
   179  175  178 1   
   180  181  182 1   
   181  181  183 1   
   182  184  185 1   
   183  184  186 1   
   184  187  188 1   
   185  187  189 1   
@<TRIPOS>SUBSTRUCTURE
     1 MOL         1 TEMP              0 ****  ****    0 ROOT
