@<TRIPOS>MOLECULE
MOL
  189   185     1     0     0
SMALL
resp


@<TRIPOS>ATOM
      1 C1          0.5280    1.8020    5.9290 c3        1 MOL     -0.297766
      2 C2         -0.0360    1.8790    4.4800 c         1 MOL      0.738421
      3 O1          0.7430    2.2380    3.6210 o         1 MOL     -0.632260
      4 H1          0.1830    2.6640    6.4990 hc        1 MOL      0.077832
      5 H2          0.1760    0.8870    6.4080 hc        1 MOL      0.077832
      6 H3          1.6170    1.8010    5.8970 hc        1 MOL      0.077832
      7 N1         -1.2870    1.5410    4.2230 n         1 MOL     -0.698624
      8 C3         -1.9320    1.5170    2.9090 c3        1 MOL      0.231685
      9 C4         -2.0920    2.9760    2.4760 c         1 MOL      0.374914
     10 O2         -2.8070    3.7560    3.1040 o         1 MOL     -0.543623
     11 C5         -3.2350    0.6760    2.9120 c3        1 MOL     -0.168915
     12 C6         -3.8830    0.4210    1.5440 c         1 MOL      0.781261
     13 O3         -3.2790    0.7490    0.4890 o         1 MOL     -0.689315
     14 O4         -5.0250   -0.0170    1.6240 o         1 MOL     -0.689315
     15 H4         -1.8480    1.2180    5.0040 hn        1 MOL      0.358476
     16 H5         -1.2200    1.0480    2.2330 h1        1 MOL     -0.003839
     17 H6         -3.8580    1.2460    3.6110 hc        1 MOL      0.044241
     18 H7         -3.0460   -0.2590    3.4290 hc        1 MOL      0.044241
     19 N2         -1.3720    3.3730    1.4470 n         1 MOL     -0.030352
     20 C7         -1.2440    4.7820    0.9840 c3        1 MOL      0.125765
     21 C8         -2.3360    5.1000   -0.0080 c         1 MOL      0.414326
     22 O5         -2.9550    6.1500    0.0670 o         1 MOL     -0.544760
     23 C9          0.1450    5.0430    0.4880 c3        1 MOL     -0.268180
     24 C10         1.3990    4.8170    1.3590 c3        1 MOL      0.151674
     25 C11         1.4620    5.7000    2.5610 c3        1 MOL     -0.085310
     26 C12         0.6640    5.2340    3.8260 c3        1 MOL      0.147610
     27 N3          0.7130    6.2780    4.8350 n4        1 MOL     -0.388588
     28 H8         -0.8670    2.6390    0.9760 hn        1 MOL      0.035124
     29 H9         -1.4820    5.3560    1.8790 h1        1 MOL      0.003738
     30 H10         0.1600    5.9920   -0.0500 hc        1 MOL      0.054281
     31 H11         0.2690    4.2640   -0.2570 hc        1 MOL      0.054281
     32 H12         2.3330    4.8310    0.7870 hc        1 MOL      0.033886
     33 H13         1.3070    3.7800    1.6810 hc        1 MOL      0.033886
     34 H14         1.1850    6.7090    2.2490 hc        1 MOL      0.012676
     35 H15         2.5280    5.8140    2.7390 hc        1 MOL      0.012676
     36 H16         1.2110    4.3620    4.1860 hx        1 MOL      0.069679
     37 H17        -0.3650    4.9390    3.5980 hx        1 MOL      0.069679
     38 H18         1.6190    6.7250    4.8120 hn        1 MOL      0.321707
     39 H19         0.1360    7.0400    4.5220 hn        1 MOL      0.321707
     40 H20         0.4040    5.9140    5.7270 hn        1 MOL      0.321707
     41 N4         -2.5970    4.2230   -0.9900 n         1 MOL     -0.222292
     42 C13        -3.5870    4.5230   -2.0120 c3        1 MOL      0.159392
     43 C14        -5.0220    3.9610   -1.5570 c         1 MOL      0.377307
     44 O6         -6.0340    4.6110   -1.7630 o         1 MOL     -0.577105
     45 C15        -3.2130    4.0240   -3.3650 c3        1 MOL     -0.387203
     46 C16        -2.5650    2.6450   -3.4150 c         1 MOL      0.846564
     47 O7         -2.8740    1.7790   -2.5100 o         1 MOL     -0.722169
     48 O8         -1.9230    2.2590   -4.3880 o         1 MOL     -0.722169
     49 H21        -2.0570    3.3740   -1.0730 hn        1 MOL      0.142427
     50 H22        -3.7510    5.5980   -2.0750 h1        1 MOL      0.060584
     51 H23        -2.4570    4.6690   -3.8150 hc        1 MOL      0.093902
     52 H24        -4.1040    3.9920   -3.9980 hc        1 MOL      0.093902
     53 N5         -5.0860    2.8440   -0.9210 n         1 MOL      0.144076
     54 C17        -6.2710    2.3180   -0.3400 c3        1 MOL     -0.262990
     55 C18        -6.7250    1.1930   -1.2570 c         1 MOL      0.619356
     56 O9         -7.4170    1.4570   -2.2240 o         1 MOL     -0.542209
     57 H25        -4.1790    2.4000   -0.8210 hn        1 MOL     -0.046166
     58 H26        -7.0470    3.0800   -0.2230 h1        1 MOL      0.098793
     59 H27        -6.0600    1.8750    0.6310 h1        1 MOL      0.098793
     60 N6         -6.3640   -0.0840   -0.9910 n         1 MOL     -0.377468
     61 C19        -6.9560   -1.2690   -1.5940 c3        1 MOL     -0.056175
     62 C20        -7.0970   -2.4540   -0.6220 c         1 MOL      0.463849
     63 O10        -7.4770   -3.5500   -1.0750 o         1 MOL     -0.525188
     64 C21        -6.1600   -1.6630   -2.9240 c3        1 MOL     -0.130333
     65 C22        -4.6620   -1.5510   -2.6260 c         1 MOL      0.694395
     66 O11        -3.9230   -1.1230   -3.5040 o         1 MOL     -0.683754
     67 O12        -4.2200   -2.0840   -1.5740 o         1 MOL     -0.683754
     68 H28        -5.7510   -0.2310   -0.2010 hn        1 MOL      0.156448
     69 H29        -7.9840   -1.0170   -1.8780 h1        1 MOL      0.094977
     70 H30        -6.4780   -0.9400   -3.6750 hc        1 MOL      0.052016
     71 H31        -6.3970   -2.6490   -3.3160 hc        1 MOL      0.052016
     72 N7         -6.6440   -2.3130    0.6540 n         1 MOL     -0.363899
     73 C23        -6.6510   -3.4320    1.5730 c3        1 MOL     -0.129326
     74 C24        -5.3910   -4.3220    1.4530 c         1 MOL      0.534575
     75 O13        -5.5060   -5.4340    1.9460 o         1 MOL     -0.557614
     76 H32        -6.2520   -1.4640    1.0300 hn        1 MOL      0.317009
     77 H33        -7.5040   -4.0750    1.3770 h1        1 MOL      0.102008
     78 H34        -6.7930   -3.1110    2.6060 h1        1 MOL      0.102008
     79 N8         -4.2180   -3.9410    0.8100 n         1 MOL     -0.309986
     80 C25        -2.9240   -4.5960    1.0490 c3        1 MOL     -0.052587
     81 C26        -1.7960   -3.5330    1.0910 c         1 MOL      0.565052
     82 O14        -1.8660   -2.3870    0.5500 o         1 MOL     -0.717463
     83 C27        -2.5730   -5.7310    0.0980 c3        1 MOL      0.349938
     84 C28        -3.4910   -6.9890   -0.0170 c3        1 MOL     -0.420188
     85 O15        -2.5570   -5.1030   -1.1720 oh        1 MOL     -0.613685
     86 H35        -4.2820   -3.1030    0.2410 hn        1 MOL      0.240389
     87 H36        -2.8800   -4.9580    2.0800 h1        1 MOL      0.039663
     88 H37        -1.5740   -6.0440    0.3680 h1        1 MOL      0.022021
     89 H38        -3.4750   -4.9820   -1.4260 ho        1 MOL      0.408600
     90 H39        -3.9420   -7.2470    0.9430 hc        1 MOL      0.121440
     91 H40        -4.2670   -6.8080   -0.7620 hc        1 MOL      0.121440
     92 H41        -2.9450   -7.8670   -0.3540 hc        1 MOL      0.121440
     93 N9         -0.6590   -3.9730    1.6080 n         1 MOL     -0.320341
     94 C29         0.5490   -3.1820    1.5810 c3        1 MOL      0.024683
     95 C30         1.5930   -3.7810    0.6970 c         1 MOL      0.399782
     96 O16         2.1150   -4.8130    0.9890 o         1 MOL     -0.538027
     97 C31         0.9220   -2.9890    3.1100 c3        1 MOL      0.128796
     98 C32        -0.2370   -2.5670    4.0720 c3        1 MOL      0.108526
     99 C33         2.1460   -2.0560    3.3790 c3        1 MOL     -0.259454
    100 C34         0.0390   -2.8580    5.5840 c3        1 MOL     -0.463147
    101 H42        -0.6580   -4.8400    2.1190 hn        1 MOL      0.223322
    102 H43         0.3760   -2.1580    1.2210 h1        1 MOL      0.072419
    103 H44         1.2420   -3.9850    3.4330 hc        1 MOL      0.012880
    104 H45        -1.1950   -3.0700    3.9230 hc        1 MOL      0.018288
    105 H46        -0.5260   -1.5260    3.9550 hc        1 MOL      0.018288
    106 H47         1.9340   -1.0360    3.0690 hc        1 MOL      0.042684
    107 H48         2.4840   -2.0340    4.4140 hc        1 MOL      0.042684
    108 H49         2.9970   -2.3320    2.7440 hc        1 MOL      0.042684
    109 H50        -0.8240   -2.4630    6.1250 hc        1 MOL      0.117975
    110 H51         0.3000   -3.8990    5.7150 hc        1 MOL      0.117975
    111 H52         0.9660   -2.3740    5.8680 hc        1 MOL      0.117975
    112 N10         2.2320   -2.9090   -0.0770 n         1 MOL     -0.045202
    113 C35         3.3730   -3.1210   -0.9680 c3        1 MOL     -0.159723
    114 C36         4.6590   -2.5480   -0.3530 c         1 MOL      0.484215
    115 O17         4.6820   -1.6780    0.5140 o         1 MOL     -0.435051
    116 C37         3.1130   -2.4570   -2.3480 c3        1 MOL      0.356919
    117 C38         2.0260   -3.2420   -3.0740 c3        1 MOL     -0.529285
    118 O18         2.7330   -1.1170   -2.1830 oh        1 MOL     -0.602169
    119 H53         1.7670   -2.0200   -0.0820 hn        1 MOL      0.151660
    120 H54         3.6030   -4.1880   -0.8870 h1        1 MOL      0.103621
    121 H55         4.0130   -2.5320   -2.9510 h1        1 MOL     -0.003487
    122 H56         2.0330   -1.0510   -1.5350 ho        1 MOL      0.322426
    123 H57         1.7610   -2.6450   -3.9470 hc        1 MOL      0.143885
    124 H58         2.3120   -4.2580   -3.3300 hc        1 MOL      0.143885
    125 H59         1.1360   -3.2680   -2.4380 hc        1 MOL      0.143885
    126 N11         5.8350   -2.8970   -0.8660 n         1 MOL     -0.250973
    127 C39         7.1590   -2.5560   -0.3390 c3        1 MOL     -0.050927
    128 C40         7.4280   -1.0580   -0.4560 c         1 MOL      0.371254
    129 O19         8.1430   -0.5720    0.4540 o         1 MOL     -0.469564
    130 C41         8.2310   -3.4550   -1.0220 c3        1 MOL      0.395290
    131 C42         9.4210   -3.7620   -0.1020 c3        1 MOL     -0.483856
    132 O20         7.6380   -4.7510   -1.2980 oh        1 MOL     -0.640478
    133 H60         5.7780   -3.6800   -1.5080 hn        1 MOL      0.195084
    134 H61         7.2770   -2.7360    0.7310 h1        1 MOL      0.104902
    135 H62         8.5540   -3.0260   -1.9670 h1        1 MOL     -0.020947
    136 H63         8.3380   -5.4080   -1.3470 ho        1 MOL      0.408000
    137 H64        10.0180   -2.8690    0.0340 hc        1 MOL      0.136995
    138 H65         8.9560   -4.2040    0.7780 hc        1 MOL      0.136995
    139 H66        10.0470   -4.5150   -0.5810 hc        1 MOL      0.136995
    140 N12         6.8310   -0.4440   -1.4670 n         1 MOL     -0.247340
    141 C43         6.6800    0.9900   -1.5880 c3        1 MOL     -0.113350
    142 C44         5.9310    1.6380   -0.4500 c         1 MOL      0.269481
    143 O21         6.4670    2.5960    0.1330 o         1 MOL     -0.517634
    144 C45         6.0520    1.3520   -2.9430 c3        1 MOL     -0.027201
    145 C46         6.0250    2.9010   -3.1890 c3        1 MOL      0.008356
    146 C47         5.8060    3.4420   -4.5720 c3        1 MOL     -0.067604
    147 C48         4.6110    2.6950   -5.1510 c3        1 MOL      0.039929
    148 N13         4.2500    3.1360   -6.5050 n4        1 MOL     -0.298190
    149 H67         6.5410   -1.1030   -2.1770 hn        1 MOL      0.203549
    150 H68         7.7000    1.3560   -1.7180 h1        1 MOL      0.135308
    151 H69         5.0740    0.8650   -3.0100 hc        1 MOL      0.018105
    152 H70         6.5480    0.9100   -3.8080 hc        1 MOL      0.018105
    153 H71         6.9780    3.2950   -2.8310 hc        1 MOL      0.041927
    154 H72         5.2770    3.3030   -2.5040 hc        1 MOL      0.041927
    155 H73         6.6990    3.2770   -5.1730 hc        1 MOL      0.043704
    156 H74         5.5720    4.5010   -4.5140 hc        1 MOL      0.043704
    157 H75         3.7470    2.7550   -4.4790 hx        1 MOL      0.096703
    158 H76         4.8660    1.6360   -5.2650 hx        1 MOL      0.096703
    159 H77         3.5820    2.5250   -6.9350 hn        1 MOL      0.308612
    160 H78         3.8510    4.0520   -6.5810 hn        1 MOL      0.308612
    161 H79         5.0630    3.2490   -7.1000 hn        1 MOL      0.308612
    162 N14         4.8710    1.1140    0.0550 n         1 MOL      0.163993
    163 C49         3.9790    1.7280    1.1170 c3        1 MOL     -0.142605
    164 C50         4.5680    1.4430    2.4900 c         1 MOL      0.477422
    165 O22         4.5900    2.3010    3.3850 o         1 MOL     -0.551018
    166 C51         2.6170    1.0310    0.8630 c3        1 MOL     -0.543693
    167 C52         1.9360    1.4740   -0.4730 c3        1 MOL      0.144653
    168 C53         0.6700    0.7860   -0.7520 c         1 MOL      0.558246
    169 O23         0.5430   -0.4930   -0.8250 o         1 MOL     -0.628942
    170 O24        -0.3300    1.5040   -0.8820 o         1 MOL     -0.628942
    171 H80         4.7400    0.1630   -0.2570 hn        1 MOL      0.086912
    172 H81         3.9130    2.8000    0.9090 h1        1 MOL      0.108738
    173 H82         1.8550    1.3040    1.5900 hc        1 MOL      0.230567
    174 H83         2.7910   -0.0420    0.7420 hc        1 MOL      0.230567
    175 H84         2.6330    1.3710   -1.3040 hc        1 MOL     -0.033407
    176 H85         1.7490    2.5420   -0.5170 hc        1 MOL     -0.033407
    177 N15         5.2180    0.2880    2.6060 n         1 MOL     -0.092012
    178 C54         6.0770   -0.0760    3.7520 c3        1 MOL     -0.317305
    179 H86         5.7940    0.5190    4.6200 h1        1 MOL      0.119667
    180 H87         5.9500   -1.1340    3.9800 h1        1 MOL      0.119667
    181 H88         7.1190    0.1200    3.5020 h1        1 MOL      0.119667
    182 H89         5.2840   -0.3570    1.8310 hn        1 MOL      0.174827
    183 Ca1        -1.9500   -0.4410   -1.4860 Ca        1 MOL      1.771833
    184 O25        -1.3180   -2.9330   -2.3190 oh        1 MOL     -0.878723
    185 H90        -1.7790   -3.5900   -1.7920 ho        1 MOL      0.404177
    186 H91        -1.1170   -3.3820   -3.1400 ho        1 MOL      0.404177
    187 O26        -0.9740   -0.1420   -4.1830 oh        1 MOL     -0.878723
    188 H92        -0.8310   -0.5430   -5.0370 ho        1 MOL      0.404177
    189 H93        -1.3510    0.7140   -4.3730 ho        1 MOL      0.404177
@<TRIPOS>BOND
     1    1    2 1   
     2    1    4 1   
     3    1    5 1   
     4    1    6 1   
     5    2    3 2   
     6    2    7 1   
     7    7    8 1   
     8    7   15 1   
     9    8    9 1   
    10    8   11 1   
    11    8   16 1   
    12    9   10 2   
    13    9   19 1   
    14   11   12 1   
    15   11   17 1   
    16   11   18 1   
    17   12   13 1   
    18   12   14 1   
    19   19   20 1   
    20   19   28 1   
    21   20   21 1   
    22   20   23 1   
    23   20   29 1   
    24   21   22 2   
    25   21   41 1   
    26   23   24 1   
    27   23   30 1   
    28   23   31 1   
    29   24   25 1   
    30   24   32 1   
    31   24   33 1   
    32   25   26 1   
    33   25   34 1   
    34   25   35 1   
    35   26   27 1   
    36   26   36 1   
    37   26   37 1   
    38   27   38 1   
    39   27   39 1   
    40   27   40 1   
    41   41   42 1   
    42   41   49 1   
    43   42   43 1   
    44   42   45 1   
    45   42   50 1   
    46   43   44 2   
    47   43   53 1   
    48   45   46 1   
    49   45   51 1   
    50   45   52 1   
    51   46   47 1   
    52   46   48 1   
    53   53   54 1   
    54   53   57 1   
    55   54   55 1   
    56   54   58 1   
    57   54   59 1   
    58   55   56 2   
    59   55   60 1   
    60   60   61 1   
    61   60   68 1   
    62   61   62 1   
    63   61   64 1   
    64   61   69 1   
    65   62   63 2   
    66   62   72 1   
    67   64   65 1   
    68   64   70 1   
    69   64   71 1   
    70   65   66 1   
    71   65   67 1   
    72   72   73 1   
    73   72   76 1   
    74   73   74 1   
    75   73   77 1   
    76   73   78 1   
    77   74   75 2   
    78   74   79 1   
    79   79   80 1   
    80   79   86 1   
    81   80   81 1   
    82   80   83 1   
    83   80   87 1   
    84   81   82 2   
    85   81   93 1   
    86   83   84 1   
    87   83   85 1   
    88   83   88 1   
    89   84   90 1   
    90   84   91 1   
    91   84   92 1   
    92   85   89 1   
    93   93   94 1   
    94   93  101 1   
    95   94   95 1   
    96   94   97 1   
    97   94  102 1   
    98   95   96 2   
    99   95  112 1   
   100   97   98 1   
   101   97   99 1   
   102   97  103 1   
   103   98  100 1   
   104   98  104 1   
   105   98  105 1   
   106   99  106 1   
   107   99  107 1   
   108   99  108 1   
   109  100  109 1   
   110  100  110 1   
   111  100  111 1   
   112  112  113 1   
   113  112  119 1   
   114  113  114 1   
   115  113  116 1   
   116  113  120 1   
   117  114  115 2   
   118  114  126 1   
   119  116  117 1   
   120  116  118 1   
   121  116  121 1   
   122  117  123 1   
   123  117  124 1   
   124  117  125 1   
   125  118  122 1   
   126  126  127 1   
   127  126  133 1   
   128  127  128 1   
   129  127  130 1   
   130  127  134 1   
   131  128  129 2   
   132  128  140 1   
   133  130  131 1   
   134  130  132 1   
   135  130  135 1   
   136  131  137 1   
   137  131  138 1   
   138  131  139 1   
   139  132  136 1   
   140  140  141 1   
   141  140  149 1   
   142  141  142 1   
   143  141  144 1   
   144  141  150 1   
   145  142  143 2   
   146  142  162 1   
   147  144  145 1   
   148  144  151 1   
   149  144  152 1   
   150  145  146 1   
   151  145  153 1   
   152  145  154 1   
   153  146  147 1   
   154  146  155 1   
   155  146  156 1   
   156  147  148 1   
   157  147  157 1   
   158  147  158 1   
   159  148  159 1   
   160  148  160 1   
   161  148  161 1   
   162  162  163 1   
   163  162  171 1   
   164  163  164 1   
   165  163  166 1   
   166  163  172 1   
   167  164  165 2   
   168  164  177 1   
   169  166  167 1   
   170  166  173 1   
   171  166  174 1   
   172  167  168 1   
   173  167  175 1   
   174  167  176 1   
   175  168  169 1   
   176  168  170 1   
   177  177  178 1   
   178  177  182 1   
   179  178  179 1   
   180  178  180 1   
   181  178  181 1   
   182  184  185 1   
   183  184  186 1   
   184  187  188 1   
   185  187  189 1   
@<TRIPOS>SUBSTRUCTURE
     1 MOL         1 TEMP              0 ****  ****    0 ROOT
