@<TRIPOS>MOLECULE
MOL
  179   176     1     0     0
SMALL
resp


@<TRIPOS>ATOM
      1 C1          1.3090    2.7680    6.4080 c3        1 MOL     -0.331456
      2 C2          1.0550    2.4120    4.9250 c         1 MOL      0.804543
      3 O1          1.9130    2.1720    4.1560 o         1 MOL     -0.582223
      4 H1          2.3740    2.9390    6.5630 hc        1 MOL      0.082757
      5 H2          0.7560    3.6720    6.6660 hc        1 MOL      0.082757
      6 H3          0.9770    1.9450    7.0420 hc        1 MOL      0.082757
      7 N1         -0.2690    2.3560    4.5090 n         1 MOL     -0.706993
      8 C3         -0.6990    2.3100    3.1510 c3        1 MOL      0.053924
      9 C4         -0.4600    3.6370    2.4680 c         1 MOL      0.678120
     10 O2         -1.0370    4.6290    2.9050 o         1 MOL     -0.567091
     11 C5         -2.1990    1.8860    3.1220 c3        1 MOL     -0.108374
     12 C6         -2.7880    1.6900    1.6600 c         1 MOL      0.680204
     13 O3         -4.0220    1.3200    1.6420 o         1 MOL     -0.633736
     14 O4         -2.1100    1.9050    0.6530 o         1 MOL     -0.633736
     15 H4         -1.0370    2.1830    5.1340 hn        1 MOL      0.335659
     16 H5         -0.1250    1.5350    2.6570 h1        1 MOL     -0.066430
     17 H6         -2.8410    2.6290    3.5970 hc        1 MOL      0.045075
     18 H7         -2.4060    0.9600    3.6380 hc        1 MOL      0.045075
     19 N2          0.3360    3.6600    1.4250 n         1 MOL     -0.270507
     20 C7          0.7980    4.9140    0.7900 c3        1 MOL     -0.283656
     21 C8         -0.3220    5.6280    0.0210 c         1 MOL      0.368266
     22 O5         -0.4960    6.8750    0.0300 o         1 MOL     -0.557153
     23 C9          2.0720    4.6350   -0.0580 c3        1 MOL      0.103088
     24 C10         2.8870    5.8970   -0.4620 c3        1 MOL     -0.029893
     25 C11         4.1630    5.6480   -1.2140 c3        1 MOL     -0.064000
     26 C12         4.8080    6.9410   -1.6200 c3        1 MOL      0.182699
     27 N3          5.9980    6.6980   -2.3740 n4        1 MOL     -0.388337
     28 H8          0.4550    2.7530    0.9850 hn        1 MOL      0.205138
     29 H9          1.0550    5.6180    1.5820 h1        1 MOL      0.167723
     30 H10         1.8850    4.1730   -1.0310 hc        1 MOL      0.080525
     31 H11         2.7570    4.0510    0.5640 hc        1 MOL      0.080525
     32 H12         3.1190    6.4900    0.4180 hc        1 MOL      0.016067
     33 H13         2.2710    6.5270   -1.1060 hc        1 MOL      0.016067
     34 H14         3.8710    5.1570   -2.1430 hc        1 MOL      0.028589
     35 H15         4.7960    5.0020   -0.6000 hc        1 MOL      0.028589
     36 H16         5.1480    7.5010   -0.7470 hx        1 MOL      0.050253
     37 H17         4.1650    7.6120   -2.1830 hx        1 MOL      0.050253
     38 H18         6.4970    5.9750   -1.8840 hn        1 MOL      0.327574
     39 H19         5.7170    6.3970   -3.2910 hn        1 MOL      0.327574
     40 H20         6.5550    7.5210   -2.5500 hn        1 MOL      0.327574
     41 N4         -1.0830    4.9720   -0.8300 n         1 MOL     -0.007936
     42 C13        -2.1790    5.3530   -1.7870 c3        1 MOL      0.113641
     43 C14        -3.5610    5.2180   -1.0890 c         1 MOL      0.442291
     44 O6         -4.5100    5.8610   -1.5410 o         1 MOL     -0.509822
     45 C15        -2.1580    4.4990   -3.0560 c3        1 MOL     -0.252371
     46 C16        -1.8240    3.0160   -2.8140 c         1 MOL      0.733469
     47 O7         -0.7260    2.6560   -2.3950 o         1 MOL     -0.699671
     48 O8         -2.7670    2.2580   -2.8190 o         1 MOL     -0.699671
     49 H21        -0.8780    3.9850   -0.9130 hn        1 MOL     -0.068508
     50 H22        -2.0880    6.4150   -2.0090 h1        1 MOL      0.045988
     51 H23        -1.3260    4.8930   -3.6360 hc        1 MOL      0.068452
     52 H24        -3.0850    4.5320   -3.6370 hc        1 MOL      0.068452
     53 N5         -3.7400    4.2860   -0.0750 n         1 MOL     -0.187892
     54 C17        -5.0830    3.9250    0.4820 c3        1 MOL     -0.022704
     55 C18        -5.9330    3.1810   -0.5500 c         1 MOL      0.403316
     56 O9         -6.6330    3.7630   -1.3780 o         1 MOL     -0.501505
     57 H25        -2.9640    3.6930    0.1720 hn        1 MOL      0.120275
     58 H26        -5.5330    4.8670    0.7820 h1        1 MOL      0.052264
     59 H27        -5.0640    3.3170    1.3900 h1        1 MOL      0.052264
     60 N6         -5.7040    1.8720   -0.6140 n         1 MOL     -0.014427
     61 C19        -6.4300    0.8930   -1.3310 c3        1 MOL      0.003139
     62 C20        -6.7270   -0.4040   -0.4690 c         1 MOL      0.221850
     63 O10        -7.2970   -1.4090   -0.9210 o         1 MOL     -0.391563
     64 C21        -5.6830    0.5510   -2.6880 c3        1 MOL     -0.290622
     65 C22        -4.5420   -0.4060   -2.4180 c         1 MOL      0.582297
     66 N7         -4.4560   -1.3020   -3.4190 n         1 MOL     -0.527606
     67 O11        -3.7550   -0.4200   -1.4820 o         1 MOL     -0.597678
     68 H28        -5.0920    1.4300    0.0550 hn        1 MOL     -0.041491
     69 H29        -7.4090    1.3030   -1.5720 h1        1 MOL      0.089484
     70 H30        -5.3130    1.4530   -3.1670 hc        1 MOL      0.129338
     71 H31        -6.4310    0.0550   -3.3090 hc        1 MOL      0.129338
     72 H32        -5.1230   -1.3790   -4.1680 hn        1 MOL      0.276889
     73 H33        -3.6150   -1.8470   -3.5350 hn        1 MOL      0.276889
     74 N8         -6.2300   -0.4640    0.7820 n         1 MOL     -0.123981
     75 C23        -6.3400   -1.6080    1.7340 c3        1 MOL     -0.324842
     76 C24        -5.3860   -2.7660    1.7880 c         1 MOL      0.578145
     77 O12        -5.6530   -3.8740    2.2720 o         1 MOL     -0.510052
     78 H34        -5.7240    0.3510    1.0790 hn        1 MOL      0.222829
     79 H35        -7.2760   -2.1000    1.4850 h1        1 MOL      0.151042
     80 H36        -6.5050   -1.1990    2.7360 h1        1 MOL      0.151042
     81 N9         -4.1810   -2.3930    1.3360 n         1 MOL     -0.495143
     82 C25        -3.0710   -3.2980    0.9360 c3        1 MOL      0.324298
     83 C26        -1.7510   -2.5830    0.9810 c         1 MOL      0.266364
     84 O13        -1.7200   -1.4370    0.4750 o         1 MOL     -0.557532
     85 C27        -3.3030   -3.8390   -0.4940 c3        1 MOL     -0.121976
     86 C28        -4.5150   -4.7880   -0.4460 ca        1 MOL      0.145178
     87 C29        -5.7930   -4.2870   -0.7570 ca        1 MOL     -0.250090
     88 C30        -4.3870   -6.1820   -0.3070 ca        1 MOL     -0.250090
     89 C31        -6.9180   -5.1540   -0.6770 ca        1 MOL     -0.176501
     90 C32        -5.4900   -7.0110   -0.0810 ca        1 MOL     -0.176501
     91 C33        -6.7950   -6.4960   -0.2420 ca        1 MOL      0.284484
     92 O14        -7.8900   -7.2370    0.0210 oh        1 MOL     -0.463045
     93 H37        -4.0130   -1.4010    1.2730 hn        1 MOL      0.333709
     94 H38        -3.1410   -4.1240    1.6430 h1        1 MOL      0.014816
     95 H39        -2.4350   -4.4170   -0.7770 hc        1 MOL      0.032179
     96 H40        -3.5330   -3.0860   -1.2510 hc        1 MOL      0.032179
     97 H41        -5.9350   -3.2380   -0.9790 ha        1 MOL      0.122491
     98 H42        -3.4060   -6.6070   -0.1250 ha        1 MOL      0.122491
     99 H43        -7.8730   -4.6750   -0.8820 ha        1 MOL      0.120882
    100 H44        -5.3670   -8.0750    0.0750 ha        1 MOL      0.120882
    101 H45        -7.7100   -8.1700    0.1980 ho        1 MOL      0.356505
    102 N10        -0.6930   -3.1990    1.5240 n         1 MOL     -0.391582
    103 C34         0.6590   -2.6800    1.3240 c3        1 MOL     -0.044842
    104 C35         1.5150   -3.6170    0.4740 c         1 MOL      0.682479
    105 O15         1.4210   -4.8330    0.6100 o         1 MOL     -0.590338
    106 C36         1.2110   -2.4490    2.8100 c3        1 MOL     -0.083650
    107 C37         0.5080   -1.1420    3.3520 c3        1 MOL      0.091345
    108 C38         2.7280   -2.2510    2.9100 c3        1 MOL     -0.028872
    109 C39         0.4930   -1.0760    4.8720 c3        1 MOL     -0.295649
    110 H46        -0.7480   -4.0570    2.0510 hn        1 MOL      0.312729
    111 H47         0.6170   -1.6690    0.9240 h1        1 MOL      0.036437
    112 H48         0.8610   -3.2720    3.4250 hc        1 MOL      0.049825
    113 H49        -0.5650   -1.1040    3.1580 hc        1 MOL      0.090046
    114 H50         0.9830   -0.3280    2.8110 hc        1 MOL      0.090046
    115 H51         2.9910   -1.3320    2.3950 hc        1 MOL      0.005013
    116 H52         3.1010   -2.2670    3.9350 hc        1 MOL      0.005013
    117 H53         3.1580   -3.1630    2.4920 hc        1 MOL      0.005013
    118 H54         1.5500   -0.9790    5.1140 hc        1 MOL      0.067613
    119 H55         0.0080   -0.1860    5.2730 hc        1 MOL      0.067613
    120 H56        -0.0170   -1.8890    5.3920 hc        1 MOL      0.067613
    121 N11         2.2830   -3.1200   -0.4820 n         1 MOL     -0.370257
    122 C40         3.2820   -3.8280   -1.3350 c3        1 MOL      0.033903
    123 C41         4.6820   -3.8440   -0.7470 c         1 MOL      0.361720
    124 O16         4.9920   -3.1500    0.1730 o         1 MOL     -0.325677
    125 C42         3.3660   -3.1690   -2.7120 c3        1 MOL     -0.144753
    126 O17         4.0390   -1.9140   -2.5950 oh        1 MOL     -0.407486
    127 H57         2.2810   -2.1150   -0.5770 hn        1 MOL      0.293257
    128 H58         2.8500   -4.8170   -1.4490 h1        1 MOL      0.078854
    129 H59         2.4060   -3.0740   -3.2180 h1        1 MOL      0.092234
    130 H60         3.9330   -3.8620   -3.3330 h1        1 MOL      0.092234
    131 H61         3.6310   -1.4260   -3.3190 ho        1 MOL      0.394395
    132 N12         5.6180   -4.5450   -1.3880 n         1 MOL     -0.296942
    133 C43         6.9380   -4.7160   -0.9240 c3        1 MOL      0.045728
    134 C44         7.6840   -3.3500   -0.8720 c         1 MOL      0.369756
    135 O18         8.6060   -3.1500   -0.0980 o         1 MOL     -0.485780
    136 C45         7.8250   -5.7120   -1.7650 c3        1 MOL     -0.263287
    137 H62         5.2850   -5.2250   -2.0520 hn        1 MOL      0.247340
    138 H63         6.9400   -5.0850    0.1070 h1        1 MOL      0.093522
    139 H64         8.0270   -5.2370   -2.7230 hc        1 MOL      0.093710
    140 H65         8.6440   -6.1340   -1.1810 hc        1 MOL      0.093710
    141 H66         7.3510   -6.6650   -1.9760 hc        1 MOL      0.093710
    142 N13         7.2630   -2.3940   -1.7570 n         1 MOL     -0.206234
    143 C46         7.7850   -1.0810   -1.9220 c3        1 MOL      0.039943
    144 C47         7.1310   -0.1810   -0.8780 c         1 MOL      0.418695
    145 O19         7.7940    0.5840   -0.2760 o         1 MOL     -0.500450
    146 C48         7.5570   -0.7180   -3.4420 c3        1 MOL     -0.160670
    147 H67         6.4360   -2.6640   -2.2660 hn        1 MOL      0.156414
    148 H68         8.8560   -1.0810   -1.7110 h1        1 MOL      0.099876
    149 H69         6.5070   -0.5550   -3.6660 hc        1 MOL      0.043272
    150 H70         8.1710    0.1390   -3.7280 hc        1 MOL      0.043272
    151 H71         7.8900   -1.5220   -4.0940 hc        1 MOL      0.043272
    152 N14         5.8050   -0.2880   -0.6590 n         1 MOL     -0.177985
    153 C49         5.2570    0.4620    0.4440 c3        1 MOL     -0.113561
    154 C50         5.6840    0.0090    1.8540 c         1 MOL      0.453684
    155 O20         5.8670    0.8770    2.6810 o         1 MOL     -0.548124
    156 C51         3.7120    0.3440    0.4430 c3        1 MOL      0.015818
    157 C52         3.1980    1.1770   -0.6900 c3        1 MOL      0.094884
    158 C53         1.6450    0.9400   -0.9230 c         1 MOL      0.612913
    159 O21         1.2160    0.2650   -1.9090 o         1 MOL     -0.726749
    160 O22         0.8490    1.2710   -0.0160 o         1 MOL     -0.726749
    161 H72         5.2780   -1.0770   -1.0330 hn        1 MOL      0.061146
    162 H73         5.6230    1.4780    0.3450 h1        1 MOL      0.107876
    163 H74         3.3140    0.7460    1.3740 hc        1 MOL      0.079953
    164 H75         3.4380   -0.7090    0.3420 hc        1 MOL      0.079953
    165 H76         3.6930    0.7760   -1.5760 hc        1 MOL     -0.097242
    166 H77         3.4000    2.2480   -0.6170 hc        1 MOL     -0.097242
    167 N15         5.9400   -1.3040    2.0670 n         1 MOL     -0.039983
    168 C54         6.5010   -1.8910    3.2750 c3        1 MOL     -0.280707
    169 H78         6.9230   -1.1020    3.8990 h1        1 MOL      0.107069
    170 H79         5.7170   -2.4090    3.8270 h1        1 MOL      0.107069
    171 H80         7.2850   -2.5980    3.0060 h1        1 MOL      0.107069
    172 H81         5.6410   -1.8930    1.3060 hn        1 MOL      0.086476
    173 Ca1        -1.3890    0.4260   -1.3480 Ca        1 MOL      1.824149
    174 O23        -1.5660   -0.3070   -4.0100 oh        1 MOL     -0.874260
    175 H82        -2.1770   -0.0150   -4.6860 ho        1 MOL      0.415486
    176 H83        -1.1240   -1.0600   -4.3910 ho        1 MOL      0.415486
    177 O24        -0.2880   -2.0990   -1.8630 oh        1 MOL     -0.874260
    178 H84        -0.1750   -3.0210   -1.6220 ho        1 MOL      0.415486
    179 H85        -0.0760   -2.0770   -2.8070 ho        1 MOL      0.415486
@<TRIPOS>BOND
     1    1    2 1   
     2    1    4 1   
     3    1    5 1   
     4    1    6 1   
     5    2    3 2   
     6    2    7 1   
     7    7    8 1   
     8    7   15 1   
     9    8    9 1   
    10    8   11 1   
    11    8   16 1   
    12    9   10 2   
    13    9   19 1   
    14   11   12 1   
    15   11   17 1   
    16   11   18 1   
    17   12   13 1   
    18   12   14 1   
    19   19   20 1   
    20   19   28 1   
    21   20   21 1   
    22   20   23 1   
    23   20   29 1   
    24   21   22 2   
    25   21   41 1   
    26   23   24 1   
    27   23   30 1   
    28   23   31 1   
    29   24   25 1   
    30   24   32 1   
    31   24   33 1   
    32   25   26 1   
    33   25   34 1   
    34   25   35 1   
    35   26   27 1   
    36   26   36 1   
    37   26   37 1   
    38   27   38 1   
    39   27   39 1   
    40   27   40 1   
    41   41   42 1   
    42   41   49 1   
    43   42   43 1   
    44   42   45 1   
    45   42   50 1   
    46   43   44 2   
    47   43   53 1   
    48   45   46 1   
    49   45   51 1   
    50   45   52 1   
    51   46   47 1   
    52   46   48 1   
    53   53   54 1   
    54   53   57 1   
    55   54   55 1   
    56   54   58 1   
    57   54   59 1   
    58   55   56 2   
    59   55   60 1   
    60   60   61 1   
    61   60   68 1   
    62   61   62 1   
    63   61   64 1   
    64   61   69 1   
    65   62   63 2   
    66   62   74 1   
    67   64   65 1   
    68   64   70 1   
    69   64   71 1   
    70   65   66 1   
    71   65   67 2   
    72   66   72 1   
    73   66   73 1   
    74   74   75 1   
    75   74   78 1   
    76   75   76 1   
    77   75   79 1   
    78   75   80 1   
    79   76   77 2   
    80   76   81 1   
    81   81   82 1   
    82   81   93 1   
    83   82   83 1   
    84   82   85 1   
    85   82   94 1   
    86   83   84 2   
    87   83  102 1   
    88   85   86 1   
    89   85   95 1   
    90   85   96 1   
    91   86   87 ar  
    92   86   88 ar  
    93   87   89 ar  
    94   87   97 1   
    95   88   90 ar  
    96   88   98 1   
    97   89   91 ar  
    98   89   99 1   
    99   90   91 ar  
   100   90  100 1   
   101   91   92 1   
   102   92  101 1   
   103  102  103 1   
   104  102  110 1   
   105  103  104 1   
   106  103  106 1   
   107  103  111 1   
   108  104  105 2   
   109  104  121 1   
   110  106  107 1   
   111  106  108 1   
   112  106  112 1   
   113  107  109 1   
   114  107  113 1   
   115  107  114 1   
   116  108  115 1   
   117  108  116 1   
   118  108  117 1   
   119  109  118 1   
   120  109  119 1   
   121  109  120 1   
   122  121  122 1   
   123  121  127 1   
   124  122  123 1   
   125  122  125 1   
   126  122  128 1   
   127  123  124 2   
   128  123  132 1   
   129  125  126 1   
   130  125  129 1   
   131  125  130 1   
   132  126  131 1   
   133  132  133 1   
   134  132  137 1   
   135  133  134 1   
   136  133  136 1   
   137  133  138 1   
   138  134  135 2   
   139  134  142 1   
   140  136  139 1   
   141  136  140 1   
   142  136  141 1   
   143  142  143 1   
   144  142  147 1   
   145  143  144 1   
   146  143  146 1   
   147  143  148 1   
   148  144  145 2   
   149  144  152 1   
   150  146  149 1   
   151  146  150 1   
   152  146  151 1   
   153  152  153 1   
   154  152  161 1   
   155  153  154 1   
   156  153  156 1   
   157  153  162 1   
   158  154  155 2   
   159  154  167 1   
   160  156  157 1   
   161  156  163 1   
   162  156  164 1   
   163  157  158 1   
   164  157  165 1   
   165  157  166 1   
   166  158  159 1   
   167  158  160 1   
   168  167  168 1   
   169  167  172 1   
   170  168  169 1   
   171  168  170 1   
   172  168  171 1   
   173  174  175 1   
   174  174  176 1   
   175  177  178 1   
   176  177  179 1   
@<TRIPOS>SUBSTRUCTURE
     1 MOL         1 TEMP              0 ****  ****    0 ROOT
