@<TRIPOS>MOLECULE
MOL
  172   171     1     0     0
SMALL
resp


@<TRIPOS>ATOM
      1 C1          0.6360    3.1980    5.7740 c3        1 MOL     -0.348205
      2 C2          0.0390    3.3390    4.3800 c         1 MOL      0.725689
      3 O1          0.8280    3.6190    3.4810 o         1 MOL     -0.587423
      4 H1          0.3980    2.2120    6.1730 hc        1 MOL      0.074807
      5 H2          1.7180    3.3170    5.7210 hc        1 MOL      0.074807
      6 H3          0.2180    3.9640    6.4280 hc        1 MOL      0.074807
      7 N1         -1.2340    3.1200    4.2170 n         1 MOL     -0.555483
      8 C3         -1.8330    3.1810    2.8360 c3        1 MOL      0.132386
      9 C4         -1.9410    4.5250    2.1830 c         1 MOL      0.599839
     10 O2         -2.0810    5.4780    2.9390 o         1 MOL     -0.574391
     11 C5         -3.1680    2.5950    3.1250 c3        1 MOL     -0.254182
     12 C6         -4.0070    2.3140    1.8860 c         1 MOL      0.714659
     13 O3         -5.1980    2.7110    1.7500 o         1 MOL     -0.693275
     14 O4         -3.3860    1.6680    1.0280 o         1 MOL     -0.693275
     15 H4         -1.7840    3.0380    5.0600 hn        1 MOL      0.298458
     16 H5         -1.1890    2.4700    2.3170 h1        1 MOL      0.058907
     17 H6         -3.7540    3.2770    3.7450 hc        1 MOL      0.040509
     18 H7         -3.0410    1.6770    3.6990 hc        1 MOL      0.040509
     19 N2         -1.9730    4.4490    0.8550 n         1 MOL     -0.583776
     20 C7         -2.4970    5.5620    0.0110 c3        1 MOL      0.389498
     21 C8         -3.4660    5.2010   -1.1530 c         1 MOL      0.433057
     22 O5         -3.6510    6.0180   -2.0590 o         1 MOL     -0.545118
     23 C9         -1.2860    6.2780   -0.5560 c3        1 MOL     -0.327465
     24 H8         -1.6520    3.6170    0.3780 hn        1 MOL      0.409887
     25 H9         -3.0460    6.2630    0.6320 h1        1 MOL      0.002422
     26 H10        -1.7010    7.2240   -0.9290 hc        1 MOL      0.071145
     27 H11        -0.5100    6.5170    0.1690 hc        1 MOL      0.071145
     28 H12        -0.8260    5.6340   -1.3050 hc        1 MOL      0.071145
     29 N3         -4.0480    3.9660   -1.1710 n         1 MOL     -0.384701
     30 C10        -4.9540    3.5250   -2.3210 c3        1 MOL      0.133581
     31 C11        -6.2590    2.7430   -2.0450 c         1 MOL      0.446328
     32 O6         -7.1810    2.7210   -2.8630 o         1 MOL     -0.559450
     33 C12        -4.1140    2.7110   -3.3700 c3        1 MOL     -0.117139
     34 C13        -3.4980    1.4510   -2.7570 c         1 MOL      0.747577
     35 O7         -2.3440    1.1360   -2.9610 o         1 MOL     -0.719523
     36 O8         -4.1300    0.7430   -1.9760 o         1 MOL     -0.719523
     37 H13        -3.7880    3.2770   -0.4760 hn        1 MOL      0.139839
     38 H14        -5.3110    4.3890   -2.8830 h1        1 MOL      0.050658
     39 H15        -3.2870    3.2280   -3.8510 hc        1 MOL      0.025313
     40 H16        -4.8160    2.3710   -4.1330 hc        1 MOL      0.025313
     41 N4         -6.3270    2.1820   -0.8460 n         1 MOL     -0.304660
     42 C14        -7.5140    1.4050   -0.3700 c3        1 MOL     -0.117752
     43 C15        -7.5570   -0.0650   -0.7020 c         1 MOL      0.447693
     44 O9         -8.4410   -0.7890   -0.2810 o         1 MOL     -0.620990
     45 H17        -5.5690    2.1150   -0.1690 hn        1 MOL      0.260401
     46 H18        -8.4210    1.9080   -0.7000 h1        1 MOL      0.100977
     47 H19        -7.6130    1.5010    0.7150 h1        1 MOL      0.100977
     48 N5         -6.4870   -0.5360   -1.2880 n         1 MOL     -0.125963
     49 C16        -6.4360   -1.8790   -1.8770 c3        1 MOL     -0.051380
     50 C17        -6.3490   -3.0820   -0.9200 c         1 MOL      0.441262
     51 O10        -6.3470   -4.2260   -1.3950 o         1 MOL     -0.541795
     52 C18        -5.2660   -1.9480   -2.9180 c3        1 MOL     -0.187910
     53 C19        -3.8460   -2.1020   -2.3770 c         1 MOL      0.662028
     54 N6         -2.7880   -2.2290   -3.1550 n         1 MOL     -0.639083
     55 O11        -3.6720   -2.1660   -1.1430 o         1 MOL     -0.690995
     56 H20        -5.7580    0.1510   -1.4540 hn        1 MOL      0.144649
     57 H21        -7.3860   -2.0600   -2.3730 h1        1 MOL      0.108907
     58 H22        -5.3610   -1.0980   -3.5870 hc        1 MOL      0.068757
     59 H23        -5.4460   -2.7720   -3.6130 hc        1 MOL      0.068757
     60 H24        -2.8290   -2.4450   -4.1360 hn        1 MOL      0.330821
     61 H25        -1.8440   -2.1740   -2.7910 hn        1 MOL      0.330821
     62 N7         -6.1770   -2.8530    0.3820 n         1 MOL     -0.198032
     63 C20        -6.2230   -3.8180    1.4580 c3        1 MOL     -0.200719
     64 C21        -4.8770   -4.5000    1.7240 c         1 MOL      0.492804
     65 O12        -4.8320   -5.5400    2.3710 o         1 MOL     -0.588794
     66 H26        -6.1530   -1.8710    0.6300 hn        1 MOL      0.289040
     67 H27        -6.9650   -4.5570    1.1640 h1        1 MOL      0.109921
     68 H28        -6.5950   -3.3310    2.3620 h1        1 MOL      0.109921
     69 N8         -3.7570   -4.1020    1.1470 n         1 MOL     -0.032905
     70 C22        -2.3880   -4.5780    1.1310 c3        1 MOL     -0.581145
     71 C23        -1.3190   -3.5420    1.2110 c         1 MOL      0.882778
     72 O13        -1.5130   -2.4910    0.6210 o         1 MOL     -0.674010
     73 C24        -2.0930   -5.4460   -0.1210 c3        1 MOL      0.682493
     74 C25        -2.6960   -6.8160   -0.1330 c3        1 MOL     -0.564315
     75 O14        -2.4930   -4.8210   -1.3060 oh        1 MOL     -0.681357
     76 H29        -3.8400   -3.2700    0.5660 hn        1 MOL      0.156562
     77 H30        -2.2800   -5.1140    2.0780 h1        1 MOL      0.163706
     78 H31        -1.0030   -5.5250   -0.2270 h1        1 MOL     -0.022083
     79 H32        -3.0910   -4.0860   -1.1820 ho        1 MOL      0.429988
     80 H33        -2.1300   -7.4630    0.5360 hc        1 MOL      0.130597
     81 H34        -3.6790   -6.8040    0.3540 hc        1 MOL      0.130597
     82 H35        -2.6940   -7.0710   -1.1880 hc        1 MOL      0.130597
     83 N9         -0.2170   -3.9130    1.9080 n         1 MOL     -0.737384
     84 C26         0.9680   -3.0130    1.8670 c3        1 MOL      0.068224
     85 C27         1.6970   -3.1800    0.5270 c         1 MOL      0.563356
     86 O15         2.3610   -4.2050    0.2420 o         1 MOL     -0.608569
     87 C28         2.0140   -3.2180    3.0440 c3        1 MOL      0.179310
     88 C29         1.3440   -3.4650    4.4030 c3        1 MOL      0.088733
     89 C30         2.9550   -1.9590    2.9670 c3        1 MOL     -0.189058
     90 C31         2.2680   -3.7500    5.6110 c3        1 MOL     -0.171325
     91 H36        -0.2030   -4.7010    2.5370 hn        1 MOL      0.331492
     92 H37         0.6170   -2.0030    2.0490 h1        1 MOL      0.102157
     93 H38         2.6330   -4.0870    2.8250 hc        1 MOL     -0.033858
     94 H39         0.5380   -4.1960    4.3800 hc        1 MOL     -0.024497
     95 H40         0.7620   -2.5510    4.5700 hc        1 MOL     -0.024497
     96 H41         3.7390   -2.0580    3.7260 hc        1 MOL      0.035646
     97 H42         3.6280   -2.1080    2.1170 hc        1 MOL      0.035646
     98 H43         2.4190   -1.0100    3.0010 hc        1 MOL      0.035646
     99 H44         2.9180   -2.8980    5.8300 hc        1 MOL      0.033784
    100 H45         1.6550   -3.9230    6.4940 hc        1 MOL      0.033784
    101 H46         2.8180   -4.6680    5.4250 hc        1 MOL      0.033784
    102 N10         1.7440   -2.0610   -0.2000 n         1 MOL     -0.301432
    103 C32         2.6640   -1.9660   -1.4680 c3        1 MOL      0.156652
    104 C33         4.0470   -1.3550   -1.0640 c         1 MOL      0.247142
    105 O16         4.1490   -0.7630   -0.0150 o         1 MOL     -0.185290
    106 C34         1.9740   -1.0420   -2.5100 c3        1 MOL     -0.427085
    107 C35         0.4960   -1.3920   -2.7480 c         1 MOL      0.760187
    108 O17         0.1860   -1.8780   -3.8360 o         1 MOL     -0.673633
    109 O18        -0.3790   -1.1350   -1.9040 o         1 MOL     -0.673633
    110 H47         1.2330   -1.2430    0.0830 hn        1 MOL      0.163010
    111 H48         2.7080   -2.9600   -1.9130 h1        1 MOL      0.081839
    112 H49         2.6430   -1.1030   -3.3700 hc        1 MOL      0.134972
    113 H50         1.9430   -0.0190   -2.1310 hc        1 MOL      0.134972
    114 N11         5.1140   -1.6070   -1.8360 n         1 MOL     -0.584456
    115 C36         6.4470   -1.1710   -1.3730 c3        1 MOL      0.323702
    116 C37         6.6510    0.3950   -1.2320 c         1 MOL      0.211662
    117 O19         7.1940    0.7950   -0.1870 o         1 MOL     -0.478368
    118 C38         7.4730   -1.8510   -2.2470 c3        1 MOL     -0.083430
    119 C39         8.9280   -1.7220   -1.8090 ca        1 MOL     -0.061790
    120 C40         9.7710   -0.6880   -2.2380 ca        1 MOL     -0.076960
    121 C41         9.3800   -2.5190   -0.7280 ca        1 MOL     -0.076960
    122 C42        11.1210   -0.7130   -1.9070 ca        1 MOL     -0.079756
    123 C43        10.6810   -2.5080   -0.3560 ca        1 MOL     -0.079756
    124 C44        11.6270   -1.7190   -0.9990 ca        1 MOL     -0.180005
    125 H51         4.9380   -2.0270   -2.7350 hn        1 MOL      0.329834
    126 H52         6.5480   -1.5800   -0.3780 h1        1 MOL      0.082945
    127 H53         7.3350   -1.5030   -3.2710 hc        1 MOL      0.042629
    128 H54         7.1820   -2.9020   -2.2580 hc        1 MOL      0.042629
    129 H55         9.4780    0.0760   -2.9430 ha        1 MOL      0.094479
    130 H56         8.7150   -3.2720   -0.3160 ha        1 MOL      0.094479
    131 H57        11.7350    0.0240   -2.4050 ha        1 MOL      0.093845
    132 H58        11.0540   -3.1740    0.4080 ha        1 MOL      0.093845
    133 H59        12.6840   -1.6450   -0.7850 ha        1 MOL      0.122051
    134 N12         5.9700    1.2990   -1.9920 n         1 MOL      0.076726
    135 C45         6.1460    2.7130   -1.7100 c3        1 MOL     -0.005565
    136 C46         5.3900    3.1120   -0.3980 c         1 MOL      0.387183
    137 O20         5.5960    4.1570    0.1610 o         1 MOL     -0.502111
    138 C47         5.7030    3.4470   -2.9340 c3        1 MOL     -0.176175
    139 C48         4.8130    2.4940   -3.7190 c3        1 MOL      0.036431
    140 C49         5.3470    1.0600   -3.3310 c3        1 MOL     -0.035367
    141 H60         7.2030    2.9780   -1.6500 h1        1 MOL      0.077784
    142 H61         5.3080    4.4400   -2.7100 hc        1 MOL      0.066485
    143 H62         6.6150    3.5300   -3.5370 hc        1 MOL      0.066485
    144 H63         3.7450    2.5570   -3.5130 hc        1 MOL      0.028067
    145 H64         4.8880    2.6830   -4.7900 hc        1 MOL      0.028067
    146 H65         4.4930    0.3920   -3.3670 h1        1 MOL      0.006709
    147 H66         6.1200    0.7210   -4.0200 h1        1 MOL      0.006709
    148 N13         4.4440    2.2500    0.1320 n         1 MOL     -0.161190
    149 C50         3.7740    2.3540    1.4180 c3        1 MOL     -0.106148
    150 C51         4.7250    1.7320    2.4620 c         1 MOL      0.399562
    151 O21         4.8970    2.3000    3.6010 o         1 MOL     -0.568539
    152 C52         2.4080    1.7360    1.3430 c3        1 MOL     -0.024980
    153 C53         1.4970    2.3260    0.2920 c3        1 MOL     -0.046501
    154 C54         0.1440    1.5930    0.3020 c         1 MOL      0.587319
    155 O22        -0.7700    2.0730   -0.4240 o         1 MOL     -0.739749
    156 O23         0.0220    0.4900    0.8620 o         1 MOL     -0.739749
    157 H67         4.3740    1.4010   -0.4050 hn        1 MOL      0.075696
    158 H68         3.7040    3.3910    1.7320 h1        1 MOL      0.137061
    159 H69         2.0480    1.8450    2.3720 hc        1 MOL      0.061375
    160 H70         2.4810    0.6720    1.1480 hc        1 MOL      0.061375
    161 H71         1.9030    2.2180   -0.7110 hc        1 MOL      0.040895
    162 H72         1.2560    3.3770    0.4740 hc        1 MOL      0.040895
    163 N14         5.4780    0.7070    2.1110 n         1 MOL      0.047331
    164 C55         6.3390    0.0140    3.0230 c3        1 MOL     -0.105037
    165 H73         5.7380   -0.4800    3.7850 h1        1 MOL      0.043372
    166 H74         6.9210   -0.7310    2.4790 h1        1 MOL      0.043372
    167 H75         7.0140    0.7260    3.4970 h1        1 MOL      0.043372
    168 H76         5.3220    0.3000    1.1920 hn        1 MOL     -0.018195
    169 Ca1        -2.1440   -0.0840   -0.3990 Ca        1 MOL      1.791407
    170 O24        -3.8920   -0.9560    1.9200 oh        1 MOL     -0.949601
    171 H77        -4.5910   -0.4820    2.3580 ho        1 MOL      0.442010
    172 H78        -3.2150   -1.0510    2.5980 ho        1 MOL      0.442010
@<TRIPOS>BOND
     1    1    2 1   
     2    1    4 1   
     3    1    5 1   
     4    1    6 1   
     5    2    3 2   
     6    2    7 1   
     7    7    8 1   
     8    7   15 1   
     9    8    9 1   
    10    8   11 1   
    11    8   16 1   
    12    9   10 2   
    13    9   19 1   
    14   11   12 1   
    15   11   17 1   
    16   11   18 1   
    17   12   13 1   
    18   12   14 1   
    19   19   20 1   
    20   19   24 1   
    21   20   21 1   
    22   20   23 1   
    23   20   25 1   
    24   21   22 2   
    25   21   29 1   
    26   23   26 1   
    27   23   27 1   
    28   23   28 1   
    29   29   30 1   
    30   29   37 1   
    31   30   31 1   
    32   30   33 1   
    33   30   38 1   
    34   31   32 2   
    35   31   41 1   
    36   33   34 1   
    37   33   39 1   
    38   33   40 1   
    39   34   35 1   
    40   34   36 1   
    41   41   42 1   
    42   41   45 1   
    43   42   43 1   
    44   42   46 1   
    45   42   47 1   
    46   43   44 2   
    47   43   48 1   
    48   48   49 1   
    49   48   56 1   
    50   49   50 1   
    51   49   52 1   
    52   49   57 1   
    53   50   51 2   
    54   50   62 1   
    55   52   53 1   
    56   52   58 1   
    57   52   59 1   
    58   53   54 1   
    59   53   55 2   
    60   54   60 1   
    61   54   61 1   
    62   62   63 1   
    63   62   66 1   
    64   63   64 1   
    65   63   67 1   
    66   63   68 1   
    67   64   65 2   
    68   64   69 1   
    69   69   70 1   
    70   69   76 1   
    71   70   71 1   
    72   70   73 1   
    73   70   77 1   
    74   71   72 2   
    75   71   83 1   
    76   73   74 1   
    77   73   75 1   
    78   73   78 1   
    79   74   80 1   
    80   74   81 1   
    81   74   82 1   
    82   75   79 1   
    83   83   84 1   
    84   83   91 1   
    85   84   85 1   
    86   84   87 1   
    87   84   92 1   
    88   85   86 2   
    89   85  102 1   
    90   87   88 1   
    91   87   89 1   
    92   87   93 1   
    93   88   90 1   
    94   88   94 1   
    95   88   95 1   
    96   89   96 1   
    97   89   97 1   
    98   89   98 1   
    99   90   99 1   
   100   90  100 1   
   101   90  101 1   
   102  102  103 1   
   103  102  110 1   
   104  103  104 1   
   105  103  106 1   
   106  103  111 1   
   107  104  105 2   
   108  104  114 1   
   109  106  107 1   
   110  106  112 1   
   111  106  113 1   
   112  107  108 1   
   113  107  109 1   
   114  114  115 1   
   115  114  125 1   
   116  115  116 1   
   117  115  118 1   
   118  115  126 1   
   119  116  117 2   
   120  116  134 1   
   121  118  119 1   
   122  118  127 1   
   123  118  128 1   
   124  119  120 ar  
   125  119  121 ar  
   126  120  122 ar  
   127  120  129 1   
   128  121  123 ar  
   129  121  130 1   
   130  122  124 ar  
   131  122  131 1   
   132  123  124 ar  
   133  123  132 1   
   134  124  133 1   
   135  134  135 1   
   136  134  140 1   
   137  135  136 1   
   138  135  138 1   
   139  135  141 1   
   140  136  137 2   
   141  136  148 1   
   142  138  139 1   
   143  138  142 1   
   144  138  143 1   
   145  139  140 1   
   146  139  144 1   
   147  139  145 1   
   148  140  146 1   
   149  140  147 1   
   150  148  149 1   
   151  148  157 1   
   152  149  150 1   
   153  149  152 1   
   154  149  158 1   
   155  150  151 2   
   156  150  163 1   
   157  152  153 1   
   158  152  159 1   
   159  152  160 1   
   160  153  154 1   
   161  153  161 1   
   162  153  162 1   
   163  154  155 1   
   164  154  156 1   
   165  163  164 1   
   166  163  168 1   
   167  164  165 1   
   168  164  166 1   
   169  164  167 1   
   170  170  171 1   
   171  170  172 1   
@<TRIPOS>SUBSTRUCTURE
     1 MOL         1 TEMP              0 ****  ****    0 ROOT
