@<TRIPOS>MOLECULE
MOL
  189   185     1     0     0
SMALL
resp


@<TRIPOS>ATOM
      1 C1          0.3030   -3.8050    6.1400 c3        1 MOL     -0.380862
      2 C2          1.0670   -3.3820    4.8900 c         1 MOL      0.721564
      3 O1          1.4270   -2.1760    4.7440 o         1 MOL     -0.606623
      4 H1         -0.5570   -3.1490    6.2790 hc        1 MOL      0.097040
      5 H2         -0.0400   -4.8330    6.0270 hc        1 MOL      0.097040
      6 H3          0.9570   -3.7330    7.0080 hc        1 MOL      0.097040
      7 N1          1.1950   -4.3070    3.8890 n         1 MOL     -0.546817
      8 C3          1.8200   -4.0020    2.6500 c3        1 MOL      0.070763
      9 C4          1.5370   -5.0600    1.5520 c         1 MOL      0.496490
     10 O2          1.8150   -6.2150    1.6320 o         1 MOL     -0.546011
     11 C5          3.3600   -3.9750    2.8090 c3        1 MOL     -0.330689
     12 C6          4.0400   -3.4950    1.5470 c         1 MOL      0.730268
     13 O3          3.5230   -2.5380    0.9540 o         1 MOL     -0.636331
     14 O4          5.1550   -3.9150    1.3400 o         1 MOL     -0.636331
     15 H4          1.1000   -5.2960    4.0520 hn        1 MOL      0.315956
     16 H5          1.4390   -3.0480    2.3150 h1        1 MOL      0.093421
     17 H6          3.7120   -4.9690    3.0940 hc        1 MOL      0.085389
     18 H7          3.5850   -3.2840    3.6180 hc        1 MOL      0.085389
     19 N2          0.9590   -4.6080    0.4080 n         1 MOL     -0.273524
     20 C7          0.8800   -5.3690   -0.8480 c3        1 MOL     -0.006096
     21 C8          2.2210   -5.4070   -1.6620 c         1 MOL      0.561159
     22 O5          2.4970   -6.4460   -2.2260 o         1 MOL     -0.575343
     23 C9         -0.1980   -4.7520   -1.8200 c3        1 MOL      0.406146
     24 C10        -1.5570   -4.5580   -1.1620 c3        1 MOL     -0.378547
     25 C11        -0.4290   -5.6620   -3.0220 c3        1 MOL     -0.420449
     26 C12        -2.2760   -5.7050   -0.3320 c3        1 MOL     -0.616981
     27 H8          0.6900   -3.6400    0.3670 hn        1 MOL      0.139834
     28 H9          0.4970   -6.3650   -0.6490 h1        1 MOL      0.042245
     29 H10         0.1110   -3.7610   -2.1560 hc        1 MOL     -0.037133
     30 H11        -2.3250   -4.2880   -1.8870 hc        1 MOL      0.196878
     31 H12        -1.4930   -3.7260   -0.4570 hc        1 MOL      0.196878
     32 H13         0.4990   -5.7790   -3.5870 hc        1 MOL      0.093469
     33 H14        -0.7300   -6.6580   -2.7000 hc        1 MOL      0.093469
     34 H15        -1.1200   -5.1630   -3.7010 hc        1 MOL      0.093469
     35 H16        -1.5710   -6.1190    0.3770 hc        1 MOL      0.166087
     36 H17        -3.1930   -5.2880    0.0760 hc        1 MOL      0.166087
     37 H18        -2.6350   -6.4600   -1.0360 hc        1 MOL      0.166087
     38 N3          2.9740   -4.2870   -1.6490 n         1 MOL     -0.380234
     39 C13         3.6910   -3.7930   -2.8770 c3        1 MOL     -0.086705
     40 C14         5.0200   -3.0930   -2.6680 c         1 MOL      0.427255
     41 O6          5.6710   -2.7420   -3.6400 o         1 MOL     -0.523780
     42 C15         2.7330   -2.8980   -3.7290 c3        1 MOL     -0.177226
     43 C16         2.0950   -1.7220   -3.0210 c         1 MOL      0.798017
     44 O7          2.5090   -1.3430   -1.9040 o         1 MOL     -0.723198
     45 O8          1.2690   -1.0410   -3.7090 o         1 MOL     -0.723198
     46 H19         2.8050   -3.5280   -1.0080 hn        1 MOL      0.262977
     47 H20         4.0320   -4.6440   -3.4710 h1        1 MOL      0.110859
     48 H21         1.8590   -3.5360   -3.8850 hc        1 MOL      0.047830
     49 H22         3.1040   -2.5050   -4.6740 hc        1 MOL      0.047830
     50 N4          5.4720   -2.9140   -1.3990 n         1 MOL     -0.088115
     51 C17         6.8060   -2.4290   -1.2320 c3        1 MOL     -0.044713
     52 C18         7.2980   -1.0780   -1.7820 c         1 MOL      0.425834
     53 O9          8.4950   -0.9110   -2.1260 o         1 MOL     -0.608211
     54 H23         4.9520   -3.0490   -0.5460 hn        1 MOL      0.017462
     55 H24         7.4510   -3.1210   -1.7650 h1        1 MOL      0.049870
     56 H25         7.1860   -2.4570   -0.2130 h1        1 MOL      0.049870
     57 N5          6.4340   -0.0750   -1.9150 n         1 MOL     -0.147165
     58 C19         6.6900    1.3230   -2.2970 c3        1 MOL     -0.036155
     59 C20         7.0230    2.2690   -1.0950 c         1 MOL      0.375451
     60 O10         7.3300    3.4750   -1.3680 o         1 MOL     -0.533918
     61 C21         5.4780    1.8620   -3.1140 c3        1 MOL     -0.223874
     62 C22         4.1750    1.9540   -2.3700 c         1 MOL      0.713946
     63 O11         4.0690    1.4250   -1.2570 o         1 MOL     -0.678813
     64 O12         3.1710    2.4950   -2.9270 o         1 MOL     -0.678813
     65 H26         5.5490   -0.2620   -1.4660 hn        1 MOL      0.177254
     66 H27         7.5510    1.5400   -2.9420 h1        1 MOL      0.115867
     67 H28         5.3620    1.1100   -3.8820 hc        1 MOL      0.070660
     68 H29         5.7300    2.7990   -3.6030 hc        1 MOL      0.070660
     69 N6          6.9810    1.7680    0.1570 n         1 MOL     -0.202201
     70 C23         7.2460    2.5620    1.3170 c3        1 MOL     -0.351815
     71 C24         6.1080    3.5670    1.6540 c         1 MOL      0.561759
     72 O13         6.2130    4.4220    2.5330 o         1 MOL     -0.599642
     73 H30         6.8050    0.7780    0.2660 hn        1 MOL      0.263191
     74 H31         8.1090    3.2130    1.1760 h1        1 MOL      0.144586
     75 H32         7.3900    1.8960    2.1690 h1        1 MOL      0.144586
     76 N7          4.9740    3.4810    0.9610 n         1 MOL     -0.327630
     77 C25         3.7870    4.3520    1.1250 c3        1 MOL      0.035324
     78 C26         2.6150    3.3890    1.5160 c         1 MOL      0.524526
     79 O14         2.7380    2.1780    1.3470 o         1 MOL     -0.608404
     80 C27         3.2890    5.1210   -0.0650 c3        1 MOL      0.269202
     81 C28         4.4320    6.1060   -0.4510 c3        1 MOL     -0.474410
     82 C29         3.9160    7.3360   -1.2570 c         1 MOL      0.708104
     83 N8          4.5130    7.6770   -2.3600 n         1 MOL     -0.740600
     84 O15         3.0710    8.1030   -0.8210 o         1 MOL     -0.590167
     85 H33         5.0520    2.8060    0.2090 hn        1 MOL      0.287667
     86 H34         3.9680    5.0290    1.9690 h1        1 MOL      0.054752
     87 H35         2.4460    5.7620    0.1940 hc        1 MOL     -0.003315
     88 H36         3.0500    4.5240   -0.9480 hc        1 MOL     -0.003315
     89 H37         5.0610    5.5300   -1.1260 hc        1 MOL      0.122263
     90 H38         5.0570    6.3490    0.4120 hc        1 MOL      0.122263
     91 H39         5.3140    7.1610   -2.6840 hn        1 MOL      0.334760
     92 H40         4.3360    8.5880   -2.7520 hn        1 MOL      0.334760
     93 N9          1.4660    3.9380    1.9420 n         1 MOL     -0.542929
     94 C30         0.1550    3.2510    2.1340 c3        1 MOL      0.313236
     95 C31        -0.8770    3.6140    1.0600 c         1 MOL      0.304147
     96 O16        -0.9900    4.7930    0.7010 o         1 MOL     -0.545860
     97 C32        -0.3430    3.6670    3.6130 c3        1 MOL      0.161698
     98 C33        -1.8660    3.6410    3.7230 c3        1 MOL     -0.266817
     99 C34         0.2080    2.6880    4.6310 c3        1 MOL     -0.266817
    100 H41         1.4430    4.9440    2.0350 hn        1 MOL      0.268863
    101 H42         0.2150    2.1650    2.1300 h1        1 MOL      0.022919
    102 H43         0.0110    4.6680    3.8860 hc        1 MOL     -0.026041
    103 H44        -2.1350    3.8220    4.7590 hc        1 MOL      0.055644
    104 H45        -2.4040    4.3110    3.0580 hc        1 MOL      0.055644
    105 H46        -2.1410    2.6140    3.4910 hc        1 MOL      0.055644
    106 H47         0.0950    1.6900    4.2250 hc        1 MOL      0.055644
    107 H48         1.2860    2.8670    4.7120 hc        1 MOL      0.055644
    108 H49        -0.1740    2.7070    5.6510 hc        1 MOL      0.055644
    109 N10        -1.6010    2.6150    0.5240 n         1 MOL     -0.114384
    110 C35        -2.8000    2.7380   -0.3570 c3        1 MOL      0.049346
    111 C36        -4.1150    2.5350    0.4200 c         1 MOL      0.364756
    112 O17        -4.1080    2.1010    1.5500 o         1 MOL     -0.419284
    113 C37        -2.7280    1.6390   -1.4030 c3        1 MOL     -0.247012
    114 C38        -3.8260    1.6920   -2.5200 c         1 MOL      0.626479
    115 N11        -4.0430    2.7770   -3.3050 n         1 MOL     -0.760904
    116 O18        -4.5930    0.7280   -2.5990 o         1 MOL     -0.434484
    117 H50        -1.3510    1.6600    0.7450 hn        1 MOL      0.277785
    118 H51        -2.9990    3.6670   -0.8730 h1        1 MOL      0.021415
    119 H52        -2.7100    0.7220   -0.8150 hc        1 MOL      0.104590
    120 H53        -1.7420    1.6970   -1.8560 hc        1 MOL      0.104590
    121 H54        -3.5000    3.6230   -3.1780 hn        1 MOL      0.353653
    122 H55        -4.7710    2.7490   -3.9960 hn        1 MOL      0.353653
    123 N12        -5.2430    2.7840   -0.1600 n         1 MOL     -0.168357
    124 C39        -6.5780    2.6070    0.3850 c3        1 MOL     -0.076066
    125 C40        -6.9440    1.1190    0.7180 c         1 MOL      0.480208
    126 O19        -7.7960    0.9240    1.5880 o         1 MOL     -0.568080
    127 C41        -7.6180    3.2240   -0.5480 c3        1 MOL     -0.136832
    128 C42        -7.8130    2.6100   -1.8790 ca        1 MOL      0.101055
    129 C43        -8.6460    1.4450   -2.0600 ca        1 MOL     -0.213229
    130 C44        -7.3240    3.3170   -3.0040 ca        1 MOL     -0.213229
    131 C45        -8.8960    0.9690   -3.3460 ca        1 MOL     -0.307611
    132 C46        -7.4280    2.7210   -4.2750 ca        1 MOL     -0.307611
    133 C47        -8.2400    1.5510   -4.4500 ca        1 MOL      0.444962
    134 O20        -8.5520    1.1550   -5.6840 oh        1 MOL     -0.536877
    135 H56        -5.1830    3.0000   -1.1510 hn        1 MOL      0.090885
    136 H57        -6.5290    3.1400    1.3380 h1        1 MOL      0.109922
    137 H58        -7.2970    4.2600   -0.6370 hc        1 MOL      0.060922
    138 H59        -8.5890    3.3370   -0.0570 hc        1 MOL      0.060922
    139 H60        -9.1920    0.9970   -1.2470 ha        1 MOL      0.163680
    140 H61        -6.7350    4.2120   -2.8950 ha        1 MOL      0.163680
    141 H62        -9.5190    0.0960   -3.4720 ha        1 MOL      0.159122
    142 H63        -7.0120    3.2210   -5.1280 ha        1 MOL      0.159122
    143 H64        -9.0940    0.3630   -5.6250 ho        1 MOL      0.398348
    144 N13        -6.4140    0.0820   -0.0260 n         1 MOL     -0.083285
    145 C48        -6.6080   -1.3690    0.3640 c3        1 MOL     -0.218078
    146 C49        -5.7690   -1.7510    1.5530 c         1 MOL      0.690140
    147 O21        -6.0800   -2.7330    2.1670 o         1 MOL     -0.548154
    148 C50        -6.4140   -2.3780   -0.7940 c3        1 MOL      0.140109
    149 C51        -5.0570   -2.5490   -1.4060 c3        1 MOL     -0.080197
    150 C52        -4.9730   -3.5240   -2.5490 c         1 MOL      0.693388
    151 O22        -4.6480   -3.1140   -3.6370 o         1 MOL     -0.721603
    152 O23        -5.1280   -4.7370   -2.3300 o         1 MOL     -0.721603
    153 H65        -5.9250    0.3190   -0.8780 hn        1 MOL      0.232827
    154 H66        -7.6420   -1.4090    0.7200 h1        1 MOL      0.080928
    155 H67        -7.1230   -2.1330   -1.5880 hc        1 MOL     -0.038454
    156 H68        -6.6920   -3.3730   -0.4540 hc        1 MOL     -0.038454
    157 H69        -4.4280   -2.7900   -0.5390 hc        1 MOL     -0.042453
    158 H70        -4.8030   -1.5720   -1.8190 hc        1 MOL     -0.042453
    159 N14        -4.7760   -0.8880    1.9380 n         1 MOL     -0.387149
    160 C53        -3.9140   -1.1040    3.1500 c3        1 MOL     -0.097160
    161 C54        -4.3770   -0.2410    4.3280 c         1 MOL      0.557056
    162 O24        -4.1270   -0.5700    5.4560 o         1 MOL     -0.568526
    163 C55        -2.4800   -0.5910    2.7240 c3        1 MOL      0.220201
    164 C56        -1.7970   -1.5910    1.8120 c3        1 MOL      0.089816
    165 C57        -0.5220   -1.1100    1.1140 c         1 MOL      0.889920
    166 O25        -0.0860    0.0160    1.3450 o         1 MOL     -0.866772
    167 O26         0.0630   -1.7540    0.2420 o         1 MOL     -0.866772
    168 H71        -4.5870    0.0260    1.5500 hn        1 MOL      0.013182
    169 H72        -3.8290   -2.1540    3.4100 h1        1 MOL      0.091159
    170 H73        -1.8680   -0.5770    3.6210 hc        1 MOL     -0.037521
    171 H74        -2.4060    0.4160    2.3240 hc        1 MOL     -0.037521
    172 H75        -2.4760   -1.9640    1.0410 hc        1 MOL     -0.047821
    173 H76        -1.4860   -2.4610    2.3950 hc        1 MOL     -0.047821
    174 N15        -5.0470    0.8890    3.9750 n         1 MOL     -0.192274
    175 C58        -5.9370    1.4090    5.0100 c3        1 MOL     -0.385732
    176 H77        -6.0310    2.4890    4.8990 h1        1 MOL      0.128731
    177 H78        -6.9200    0.9480    4.9090 h1        1 MOL      0.128731
    178 H79        -5.5260    1.1800    5.9920 h1        1 MOL      0.128731
    179 H80        -5.0480    1.1000    2.9810 hn        1 MOL      0.186026
    180 Ca1         2.4240   -0.2310    0.3430 Ca        1 MOL      1.767916
    181 O27         2.5990   -0.5960    3.1450 oh        1 MOL     -0.905304
    182 H81         2.0600   -1.0210    3.8200 ho        1 MOL      0.418543
    183 H82         3.0380    0.1280    3.6030 ho        1 MOL      0.418543
    184 O28         5.3600   -0.3800    0.9360 oh        1 MOL     -0.905304
    185 H83         5.2750   -1.3290    1.0390 ho        1 MOL      0.418543
    186 H84         5.7140   -0.0770    1.7640 ho        1 MOL      0.418543
    187 O29         1.1120    1.7390   -1.3890 oh        1 MOL     -0.905304
    188 H85         1.9520    1.9430   -1.7980 ho        1 MOL      0.418543
    189 H86         0.5880    1.3640   -2.0870 ho        1 MOL      0.418543
@<TRIPOS>BOND
     1    1    2 1   
     2    1    4 1   
     3    1    5 1   
     4    1    6 1   
     5    2    3 2   
     6    2    7 1   
     7    7    8 1   
     8    7   15 1   
     9    8    9 1   
    10    8   11 1   
    11    8   16 1   
    12    9   10 2   
    13    9   19 1   
    14   11   12 1   
    15   11   17 1   
    16   11   18 1   
    17   12   13 1   
    18   12   14 1   
    19   19   20 1   
    20   19   27 1   
    21   20   21 1   
    22   20   23 1   
    23   20   28 1   
    24   21   22 2   
    25   21   38 1   
    26   23   24 1   
    27   23   25 1   
    28   23   29 1   
    29   24   26 1   
    30   24   30 1   
    31   24   31 1   
    32   25   32 1   
    33   25   33 1   
    34   25   34 1   
    35   26   35 1   
    36   26   36 1   
    37   26   37 1   
    38   38   39 1   
    39   38   46 1   
    40   39   40 1   
    41   39   42 1   
    42   39   47 1   
    43   40   41 2   
    44   40   50 1   
    45   42   43 1   
    46   42   48 1   
    47   42   49 1   
    48   43   44 1   
    49   43   45 1   
    50   50   51 1   
    51   50   54 1   
    52   51   52 1   
    53   51   55 1   
    54   51   56 1   
    55   52   53 2   
    56   52   57 1   
    57   57   58 1   
    58   57   65 1   
    59   58   59 1   
    60   58   61 1   
    61   58   66 1   
    62   59   60 2   
    63   59   69 1   
    64   61   62 1   
    65   61   67 1   
    66   61   68 1   
    67   62   63 1   
    68   62   64 1   
    69   69   70 1   
    70   69   73 1   
    71   70   71 1   
    72   70   74 1   
    73   70   75 1   
    74   71   72 2   
    75   71   76 1   
    76   76   77 1   
    77   76   85 1   
    78   77   78 1   
    79   77   80 1   
    80   77   86 1   
    81   78   79 2   
    82   78   93 1   
    83   80   81 1   
    84   80   87 1   
    85   80   88 1   
    86   81   82 1   
    87   81   89 1   
    88   81   90 1   
    89   82   83 1   
    90   82   84 2   
    91   83   91 1   
    92   83   92 1   
    93   93   94 1   
    94   93  100 1   
    95   94   95 1   
    96   94   97 1   
    97   94  101 1   
    98   95   96 2   
    99   95  109 1   
   100   97   98 1   
   101   97   99 1   
   102   97  102 1   
   103   98  103 1   
   104   98  104 1   
   105   98  105 1   
   106   99  106 1   
   107   99  107 1   
   108   99  108 1   
   109  109  110 1   
   110  109  117 1   
   111  110  111 1   
   112  110  113 1   
   113  110  118 1   
   114  111  112 2   
   115  111  123 1   
   116  113  114 1   
   117  113  119 1   
   118  113  120 1   
   119  114  115 1   
   120  114  116 2   
   121  115  121 1   
   122  115  122 1   
   123  123  124 1   
   124  123  135 1   
   125  124  125 1   
   126  124  127 1   
   127  124  136 1   
   128  125  126 2   
   129  125  144 1   
   130  127  128 1   
   131  127  137 1   
   132  127  138 1   
   133  128  129 ar  
   134  128  130 ar  
   135  129  131 ar  
   136  129  139 1   
   137  130  132 ar  
   138  130  140 1   
   139  131  133 ar  
   140  131  141 1   
   141  132  133 ar  
   142  132  142 1   
   143  133  134 1   
   144  134  143 1   
   145  144  145 1   
   146  144  153 1   
   147  145  146 1   
   148  145  148 1   
   149  145  154 1   
   150  146  147 2   
   151  146  159 1   
   152  148  149 1   
   153  148  155 1   
   154  148  156 1   
   155  149  150 1   
   156  149  157 1   
   157  149  158 1   
   158  150  151 1   
   159  150  152 1   
   160  159  160 1   
   161  159  168 1   
   162  160  161 1   
   163  160  163 1   
   164  160  169 1   
   165  161  162 2   
   166  161  174 1   
   167  163  164 1   
   168  163  170 1   
   169  163  171 1   
   170  164  165 1   
   171  164  172 1   
   172  164  173 1   
   173  165  166 1   
   174  165  167 1   
   175  174  175 1   
   176  174  179 1   
   177  175  176 1   
   178  175  177 1   
   179  175  178 1   
   180  181  182 1   
   181  181  183 1   
   182  184  185 1   
   183  184  186 1   
   184  187  188 1   
   185  187  189 1   
@<TRIPOS>SUBSTRUCTURE
     1 MOL         1 TEMP              0 ****  ****    0 ROOT
