@<TRIPOS>MOLECULE
MOL
  175   173     1     0     0
SMALL
resp


@<TRIPOS>ATOM
      1 C1          0.6590    3.5270    5.5250 c3        1 MOL     -0.501583
      2 C2          0.1120    3.5740    4.0630 c         1 MOL      0.656165
      3 O1          0.7860    3.8520    3.0680 o         1 MOL     -0.519314
      4 H1         -0.1760    3.4730    6.2240 hc        1 MOL      0.130012
      5 H2          1.2920    2.6490    5.6480 hc        1 MOL      0.130012
      6 H3          1.2420    4.4260    5.7250 hc        1 MOL      0.130012
      7 N1         -1.2060    3.4410    3.9360 n         1 MOL     -0.518104
      8 C3         -1.9470    3.3190    2.6880 c3        1 MOL      0.061533
      9 C4         -2.0220    4.6790    1.9100 c         1 MOL      0.671946
     10 O2         -2.1540    5.7660    2.5610 o         1 MOL     -0.568823
     11 C5         -3.3650    2.6780    3.0150 c3        1 MOL     -0.378883
     12 C6         -4.1530    2.2830    1.7050 c         1 MOL      0.778442
     13 O3         -5.3840    2.1950    1.7070 o         1 MOL     -0.661379
     14 O4         -3.5180    1.9440    0.7210 o         1 MOL     -0.661379
     15 H4         -1.6750    3.3450    4.8270 hn        1 MOL      0.302125
     16 H5         -1.4310    2.5870    2.0670 h1        1 MOL      0.083793
     17 H6         -3.9630    3.4080    3.5700 hc        1 MOL      0.080277
     18 H7         -3.2540    1.7870    3.6230 hc        1 MOL      0.080277
     19 N2         -2.0360    4.6290    0.5310 n         1 MOL     -0.726305
     20 C7         -2.6560    5.7310   -0.2990 c3        1 MOL      0.507104
     21 C8         -3.5190    5.2270   -1.5260 c         1 MOL      0.380468
     22 O5         -3.5410    5.8870   -2.5680 o         1 MOL     -0.536731
     23 C9         -1.5650    6.7300   -0.6890 c3        1 MOL     -0.457556
     24 H8         -1.9890    3.7190    0.1010 hn        1 MOL      0.439947
     25 H9         -3.3900    6.2270    0.3340 h1        1 MOL     -0.038649
     26 H10        -0.9870    6.3000   -1.5120 hc        1 MOL      0.111469
     27 H11        -2.0750    7.6510   -0.9770 hc        1 MOL      0.111469
     28 H12        -0.8870    6.8620    0.1520 hc        1 MOL      0.111469
     29 N3         -4.0880    4.0300   -1.5440 n         1 MOL     -0.315746
     30 C10        -4.8920    3.5330   -2.6460 c3        1 MOL      0.037584
     31 C11        -6.1910    2.6790   -2.3020 c         1 MOL      0.357151
     32 O6         -7.1260    2.6440   -3.0670 o         1 MOL     -0.519760
     33 C12        -3.9150    2.7490   -3.4850 c3        1 MOL     -0.279905
     34 C13        -3.3090    1.6440   -2.7270 c         1 MOL      0.776906
     35 O7         -3.9920    0.7760   -2.1080 o         1 MOL     -0.740390
     36 O8         -2.0740    1.6130   -2.5350 o         1 MOL     -0.740390
     37 H13        -3.8850    3.3220   -0.8610 hn        1 MOL      0.152615
     38 H14        -5.2180    4.4420   -3.1570 h1        1 MOL      0.101466
     39 H15        -3.1250    3.4380   -3.8090 hc        1 MOL      0.086907
     40 H16        -4.3040    2.2760   -4.3840 hc        1 MOL      0.086907
     41 N4         -6.3150    2.1300   -1.0890 n         1 MOL     -0.051768
     42 C14        -7.4150    1.3170   -0.6300 c3        1 MOL     -0.217821
     43 C15        -7.5450   -0.1170   -1.2560 c         1 MOL      0.432608
     44 O9         -8.6660   -0.6520   -1.4510 o         1 MOL     -0.588707
     45 H17        -5.5690    2.3280   -0.4340 hn        1 MOL      0.070705
     46 H18        -8.3360    1.8910   -0.7770 h1        1 MOL      0.105897
     47 H19        -7.2200    1.0960    0.4210 h1        1 MOL      0.105897
     48 N5         -6.4170   -0.7550   -1.5350 n         1 MOL     -0.175945
     49 C16        -6.2460   -2.1690   -2.0150 c3        1 MOL     -0.102917
     50 C17        -6.3130   -3.2500   -0.9090 c         1 MOL      0.535034
     51 O10        -6.3170   -4.4110   -1.2730 o         1 MOL     -0.524084
     52 C18        -5.1430   -2.2650   -3.0710 c3        1 MOL     -0.057669
     53 C19        -3.7140   -2.2040   -2.6030 c         1 MOL      0.433414
     54 N6         -2.7280   -1.9990   -3.4800 n         1 MOL     -0.696386
     55 O11        -3.4830   -2.2550   -1.4150 o         1 MOL     -0.203054
     56 H20        -5.5440   -0.2500   -1.4500 hn        1 MOL      0.263166
     57 H21        -7.1090   -2.4210   -2.6420 h1        1 MOL      0.112458
     58 H22        -5.2080   -1.3810   -3.7060 hc        1 MOL      0.027079
     59 H23        -5.2580   -3.1640   -3.6680 hc        1 MOL      0.027079
     60 H24        -2.9660   -1.7250   -4.4220 hn        1 MOL      0.342288
     61 H25        -1.8200   -1.7760   -3.0890 hn        1 MOL      0.342288
     62 N7         -6.2990   -2.8280    0.3920 n         1 MOL     -0.437596
     63 C20        -6.4210   -3.8170    1.5140 c3        1 MOL     -0.113993
     64 C21        -5.0880   -4.4280    1.8990 c         1 MOL      0.484326
     65 O12        -5.0720   -5.3210    2.7690 o         1 MOL     -0.591019
     66 H26        -6.1130   -1.8530    0.5730 hn        1 MOL      0.311450
     67 H27        -6.9870   -4.6970    1.2050 h1        1 MOL      0.104435
     68 H28        -6.9040   -3.4140    2.3990 h1        1 MOL      0.104435
     69 N8         -4.0350   -3.9960    1.2290 n         1 MOL     -0.073452
     70 C22        -2.6140   -4.4710    1.3920 c3        1 MOL     -0.272519
     71 C23        -1.5480   -3.3950    1.4250 c         1 MOL      0.542051
     72 O13        -1.5950   -2.4510    0.6330 o         1 MOL     -0.566140
     73 C24        -2.2950   -5.4530    0.2520 c3        1 MOL      0.522883
     74 C25        -3.0380   -6.7620    0.3240 c3        1 MOL     -0.589420
     75 O14        -2.5230   -4.8790   -1.0180 oh        1 MOL     -0.581295
     76 H29        -4.1810   -3.3160    0.5050 hn        1 MOL      0.006991
     77 H30        -2.4940   -5.1010    2.2680 h1        1 MOL      0.099138
     78 H31        -1.2230   -5.6520    0.2580 h1        1 MOL     -0.019189
     79 H32        -2.2650   -3.9580   -1.0050 ho        1 MOL      0.330997
     80 H33        -3.0230   -7.2350    1.3000 hc        1 MOL      0.154572
     81 H34        -4.0770   -6.5510    0.0390 hc        1 MOL      0.154572
     82 H35        -2.5970   -7.4430   -0.3960 hc        1 MOL      0.154572
     83 N9         -0.4060   -3.5800    2.1310 n         1 MOL     -0.439715
     84 C26         0.8210   -2.7970    2.0570 c3        1 MOL     -0.072976
     85 C27         1.4560   -3.0280    0.6560 c         1 MOL      0.609645
     86 O15         1.6530   -4.1890    0.2930 o         1 MOL     -0.610559
     87 C28         1.7470   -3.0480    3.2810 c3        1 MOL      0.190878
     88 C29         1.2460   -2.2760    4.5000 c3        1 MOL      0.106421
     89 C30         3.1680   -2.8100    3.0380 c3        1 MOL     -0.205748
     90 C31         1.9280   -2.4210    5.9010 c3        1 MOL     -0.265934
     91 H36        -0.3750   -4.4070    2.6980 hn        1 MOL      0.269801
     92 H37         0.4440   -1.7700    2.0400 h1        1 MOL     -0.017849
     93 H38         1.5810   -4.1080    3.4800 hc        1 MOL     -0.012113
     94 H39         0.2350   -2.6530    4.6450 hc        1 MOL     -0.018389
     95 H40         1.2240   -1.2010    4.2860 hc        1 MOL     -0.018389
     96 H41         3.6780   -3.1390    3.9470 hc        1 MOL      0.021359
     97 H42         3.5060   -3.2430    2.1000 hc        1 MOL      0.021359
     98 H43         3.4350   -1.7700    2.8700 hc        1 MOL      0.021359
     99 H44         1.9410   -3.5100    6.0350 hc        1 MOL      0.062535
    100 H45         2.9710   -2.1260    5.7780 hc        1 MOL      0.062535
    101 H46         1.4430   -1.7840    6.6280 hc        1 MOL      0.062535
    102 N10         1.7490   -1.9750   -0.0800 n         1 MOL     -0.137127
    103 C32         2.5970   -1.8700   -1.2810 c3        1 MOL      0.005929
    104 C33         4.0370   -1.4590   -0.9050 c         1 MOL      0.297786
    105 O16         4.2660   -0.9710    0.2280 o         1 MOL     -0.232528
    106 C34         1.9500   -0.9180   -2.3150 c3        1 MOL     -0.162714
    107 C35         0.5040   -1.3160   -2.6740 c         1 MOL      0.621364
    108 O17        -0.4550   -1.0240   -1.8920 o         1 MOL     -0.647710
    109 O18         0.2880   -2.0790   -3.6490 o         1 MOL     -0.647710
    110 H47         1.2760   -1.1250    0.2060 hn        1 MOL      0.173957
    111 H48         2.5420   -2.8130   -1.8130 h1        1 MOL      0.078525
    112 H49         2.6460   -0.9800   -3.1560 hc        1 MOL      0.038911
    113 H50         1.9090    0.1560   -2.1080 hc        1 MOL      0.038911
    114 N11         5.0030   -1.6460   -1.8250 n         1 MOL     -0.612962
    115 C36         6.3950   -1.3490   -1.5270 c3        1 MOL      0.511447
    116 C37         6.7800    0.0920   -1.0630 c         1 MOL      0.195169
    117 O19         7.4850    0.1920   -0.0480 o         1 MOL     -0.475321
    118 C38         7.3200   -1.7800   -2.7210 c3        1 MOL     -0.465721
    119 C39         8.8190   -1.5870   -2.4130 ca        1 MOL      0.212674
    120 C40         9.3980   -2.3330   -1.3800 ca        1 MOL     -0.158038
    121 C41         9.6980   -0.8750   -3.3020 ca        1 MOL     -0.158038
    122 C42        10.7810   -2.4250   -1.2690 ca        1 MOL     -0.148553
    123 C43        11.1090   -0.9250   -3.1280 ca        1 MOL     -0.148553
    124 C44        11.6680   -1.6730   -2.0650 ca        1 MOL     -0.072330
    125 H51         4.7000   -2.1060   -2.6700 hn        1 MOL      0.353802
    126 H52         6.4940   -2.0320   -0.6810 h1        1 MOL      0.042388
    127 H53         7.1200   -1.0720   -3.5370 hc        1 MOL      0.120052
    128 H54         7.1200   -2.7900   -3.0490 hc        1 MOL      0.120052
    129 H55         8.7880   -2.8120   -0.6130 ha        1 MOL      0.109420
    130 H56         9.1940   -0.4370   -4.1550 ha        1 MOL      0.109420
    131 H57        11.1900   -3.1390   -0.5730 ha        1 MOL      0.114057
    132 H58        11.7860   -0.4350   -3.8120 ha        1 MOL      0.114057
    133 H59        12.7290   -1.8110   -1.9410 ha        1 MOL      0.095738
    134 N12         6.2690    1.1770   -1.6880 n         1 MOL     -0.095659
    135 C45         6.4490    2.5450   -1.1470 c3        1 MOL      0.134617
    136 C46         5.8540    2.8480    0.1880 c         1 MOL      0.299228
    137 O20         6.3800    3.6730    0.8880 o         1 MOL     -0.527953
    138 C47         5.7750    3.4600   -2.1830 c3        1 MOL     -0.251190
    139 C48         5.6670    2.6200   -3.4840 c3        1 MOL      0.135722
    140 C49         5.4550    1.2340   -2.8590 c3        1 MOL     -0.094089
    141 H60         7.5170    2.7270   -1.0460 h1        1 MOL      0.063669
    142 H61         4.7800    3.7850   -1.9050 hc        1 MOL      0.080565
    143 H62         6.4880    4.2790   -2.3460 hc        1 MOL      0.080565
    144 H63         4.8990    2.8370   -4.2270 hc        1 MOL     -0.004695
    145 H64         6.6140    2.6520   -4.0230 hc        1 MOL     -0.004695
    146 H65         4.4400    1.1170   -2.4680 h1        1 MOL      0.052855
    147 H66         5.7470    0.5500   -3.6490 h1        1 MOL      0.052855
    148 N13         4.8820    2.1050    0.5760 n         1 MOL      0.027285
    149 C50         4.2480    1.9840    1.8650 c3        1 MOL     -0.064901
    150 C51         5.1220    1.2180    2.8160 c         1 MOL      0.471122
    151 O21         5.2440    1.7150    3.9300 o         1 MOL     -0.560229
    152 C52         2.8410    1.3360    1.7520 c3        1 MOL     -0.229023
    153 C53         2.0260    1.9090    0.5720 c3        1 MOL     -0.181093
    154 C54         0.5190    1.3950    0.6380 c         1 MOL      0.718304
    155 O22         0.1720    0.3070    1.1220 o         1 MOL     -0.691416
    156 O23        -0.2460    2.0600   -0.0770 o         1 MOL     -0.691416
    157 H67         4.5310    1.5470   -0.1970 hn        1 MOL      0.069661
    158 H68         4.0720    2.9730    2.2800 h1        1 MOL      0.099092
    159 H69         2.2920    1.4720    2.6770 hc        1 MOL      0.099575
    160 H70         2.8880    0.2420    1.6740 hc        1 MOL      0.099575
    161 H71         2.5620    1.6220   -0.3280 hc        1 MOL      0.083792
    162 H72         1.9990    3.0050    0.6200 hc        1 MOL      0.083792
    163 N14         5.7180    0.0480    2.4780 n         1 MOL     -0.068331
    164 C55         6.8470   -0.6020    3.2410 c3        1 MOL     -0.251945
    165 H73         6.4850   -0.9290    4.2160 h1        1 MOL      0.093372
    166 H74         7.2160   -1.4620    2.6840 h1        1 MOL      0.093372
    167 H75         7.6560    0.1170    3.3770 h1        1 MOL      0.093372
    168 H76         5.5240   -0.4120    1.5980 hn        1 MOL      0.065096
    169 Ca1        -2.1080    0.0110   -0.3680 Ca        1 MOL      1.592475
    170 O24        -2.1300   -0.1210    2.4400 oh        1 MOL     -0.785700
    171 H77        -1.1810   -0.1940    2.3780 ho        1 MOL      0.384612
    172 H78        -2.3080    0.1000    3.3550 ho        1 MOL      0.384612
    173 O25        -4.8030   -0.5690    0.7880 oh        1 MOL     -0.785700
    174 H79        -4.6090    0.3690    0.8140 ho        1 MOL      0.384612
    175 H80        -5.0030   -0.7980    1.7050 ho        1 MOL      0.384612
@<TRIPOS>BOND
     1    1    2 1   
     2    1    4 1   
     3    1    5 1   
     4    1    6 1   
     5    2    3 2   
     6    2    7 1   
     7    7    8 1   
     8    7   15 1   
     9    8    9 1   
    10    8   11 1   
    11    8   16 1   
    12    9   10 2   
    13    9   19 1   
    14   11   12 1   
    15   11   17 1   
    16   11   18 1   
    17   12   13 1   
    18   12   14 1   
    19   19   20 1   
    20   19   24 1   
    21   20   21 1   
    22   20   23 1   
    23   20   25 1   
    24   21   22 2   
    25   21   29 1   
    26   23   26 1   
    27   23   27 1   
    28   23   28 1   
    29   29   30 1   
    30   29   37 1   
    31   30   31 1   
    32   30   33 1   
    33   30   38 1   
    34   31   32 2   
    35   31   41 1   
    36   33   34 1   
    37   33   39 1   
    38   33   40 1   
    39   34   35 1   
    40   34   36 1   
    41   41   42 1   
    42   41   45 1   
    43   42   43 1   
    44   42   46 1   
    45   42   47 1   
    46   43   44 2   
    47   43   48 1   
    48   48   49 1   
    49   48   56 1   
    50   49   50 1   
    51   49   52 1   
    52   49   57 1   
    53   50   51 2   
    54   50   62 1   
    55   52   53 1   
    56   52   58 1   
    57   52   59 1   
    58   53   54 1   
    59   53   55 2   
    60   54   60 1   
    61   54   61 1   
    62   62   63 1   
    63   62   66 1   
    64   63   64 1   
    65   63   67 1   
    66   63   68 1   
    67   64   65 2   
    68   64   69 1   
    69   69   70 1   
    70   69   76 1   
    71   70   71 1   
    72   70   73 1   
    73   70   77 1   
    74   71   72 2   
    75   71   83 1   
    76   73   74 1   
    77   73   75 1   
    78   73   78 1   
    79   74   80 1   
    80   74   81 1   
    81   74   82 1   
    82   75   79 1   
    83   83   84 1   
    84   83   91 1   
    85   84   85 1   
    86   84   87 1   
    87   84   92 1   
    88   85   86 2   
    89   85  102 1   
    90   87   88 1   
    91   87   89 1   
    92   87   93 1   
    93   88   90 1   
    94   88   94 1   
    95   88   95 1   
    96   89   96 1   
    97   89   97 1   
    98   89   98 1   
    99   90   99 1   
   100   90  100 1   
   101   90  101 1   
   102  102  103 1   
   103  102  110 1   
   104  103  104 1   
   105  103  106 1   
   106  103  111 1   
   107  104  105 2   
   108  104  114 1   
   109  106  107 1   
   110  106  112 1   
   111  106  113 1   
   112  107  108 1   
   113  107  109 1   
   114  114  115 1   
   115  114  125 1   
   116  115  116 1   
   117  115  118 1   
   118  115  126 1   
   119  116  117 2   
   120  116  134 1   
   121  118  119 1   
   122  118  127 1   
   123  118  128 1   
   124  119  120 ar  
   125  119  121 ar  
   126  120  122 ar  
   127  120  129 1   
   128  121  123 ar  
   129  121  130 1   
   130  122  124 ar  
   131  122  131 1   
   132  123  124 ar  
   133  123  132 1   
   134  124  133 1   
   135  134  135 1   
   136  134  140 1   
   137  135  136 1   
   138  135  138 1   
   139  135  141 1   
   140  136  137 2   
   141  136  148 1   
   142  138  139 1   
   143  138  142 1   
   144  138  143 1   
   145  139  140 1   
   146  139  144 1   
   147  139  145 1   
   148  140  146 1   
   149  140  147 1   
   150  148  149 1   
   151  148  157 1   
   152  149  150 1   
   153  149  152 1   
   154  149  158 1   
   155  150  151 2   
   156  150  163 1   
   157  152  153 1   
   158  152  159 1   
   159  152  160 1   
   160  153  154 1   
   161  153  161 1   
   162  153  162 1   
   163  154  155 1   
   164  154  156 1   
   165  163  164 1   
   166  163  168 1   
   167  164  165 1   
   168  164  166 1   
   169  164  167 1   
   170  170  171 1   
   171  170  172 1   
   172  173  174 1   
   173  173  175 1   
@<TRIPOS>SUBSTRUCTURE
     1 MOL         1 TEMP              0 ****  ****    0 ROOT
