@<TRIPOS>MOLECULE
MOL
  189   185     1     0     0
SMALL
resp


@<TRIPOS>ATOM
      1 C1          0.0670    3.0830    5.7250 c3        1 MOL     -0.471661
      2 C2         -0.3420    2.6370    4.3230 c         1 MOL      0.645254
      3 O1          0.3710    2.9950    3.3710 o         1 MOL     -0.547621
      4 H1          1.1260    2.8760    5.8760 hc        1 MOL      0.124705
      5 H2         -0.1120    4.1520    5.8340 hc        1 MOL      0.124705
      6 H3         -0.5180    2.5370    6.4650 hc        1 MOL      0.124705
      7 N1         -1.4780    1.9190    4.0730 n         1 MOL     -0.431914
      8 C3         -1.9120    1.6880    2.6600 c3        1 MOL      0.042199
      9 C4         -2.2780    2.9490    1.8420 c         1 MOL      0.249715
     10 O2         -3.3440    3.5940    1.9430 o         1 MOL     -0.491317
     11 C5         -3.1260    0.7410    2.7760 c3        1 MOL      0.054139
     12 C6         -3.7610    0.3580    1.3930 c         1 MOL      0.606710
     13 O3         -4.8910   -0.1700    1.4200 o         1 MOL     -0.636147
     14 O4         -3.0880    0.5990    0.3820 o         1 MOL     -0.636147
     15 H4         -2.0740    1.7170    4.8650 hn        1 MOL      0.294938
     16 H5         -1.0750    1.1870    2.1710 h1        1 MOL      0.047419
     17 H6         -3.8830    1.0830    3.4830 hc        1 MOL     -0.005725
     18 H7         -2.7740   -0.2090    3.1750 hc        1 MOL     -0.005725
     19 N2         -1.3640    3.4700    0.9710 n         1 MOL      0.051368
     20 C7         -1.3070    4.8350    0.4000 c3        1 MOL      0.091744
     21 C8         -2.2770    5.0710   -0.7930 c         1 MOL      0.456890
     22 O5         -2.7520    6.1600   -0.9910 o         1 MOL     -0.574655
     23 C9          0.1000    5.2830    0.0460 c3        1 MOL     -0.377669
     24 C10         1.0940    5.1520    1.1840 c3        1 MOL      0.292813
     25 C11         0.6210    5.8820    2.4640 c3        1 MOL     -0.285591
     26 C12         1.7610    5.8050    3.4440 c3        1 MOL      0.120645
     27 N3          1.4410    6.5640    4.6750 n4        1 MOL     -0.368506
     28 H8         -0.5720    2.8810    0.7580 hn        1 MOL      0.133434
     29 H9         -1.6820    5.5740    1.1180 h1        1 MOL      0.019071
     30 H10         0.0960    6.3030   -0.3310 hc        1 MOL      0.099823
     31 H11         0.4780    4.5700   -0.6870 hc        1 MOL      0.099823
     32 H12         2.0580    5.5410    0.8920 hc        1 MOL     -0.023658
     33 H13         1.4660    4.1560    1.3980 hc        1 MOL     -0.023658
     34 H14        -0.1960    5.3670    2.9700 hc        1 MOL      0.090012
     35 H15         0.4220    6.9160    2.1720 hc        1 MOL      0.090012
     36 H16         2.6760    6.1320    2.9470 hx        1 MOL      0.064439
     37 H17         1.9530    4.7640    3.6940 hx        1 MOL      0.064439
     38 H18         0.6470    6.2120    5.1770 hn        1 MOL      0.315634
     39 H19         2.2070    6.5630    5.3440 hn        1 MOL      0.315634
     40 H20         1.1620    7.5200    4.5370 hn        1 MOL      0.315634
     41 N4         -2.6130    4.0180   -1.4440 n         1 MOL     -0.222085
     42 C13        -3.6960    3.9510   -2.5020 c3        1 MOL     -0.001682
     43 C14        -4.9890    3.2530   -2.0720 c         1 MOL      0.308803
     44 O6         -5.8910    3.0950   -2.9040 o         1 MOL     -0.493310
     45 C15        -3.0800    3.3910   -3.8470 c3        1 MOL     -0.227532
     46 C16        -2.3660    2.0560   -3.7770 c         1 MOL      0.873562
     47 O7         -2.3630    1.3140   -2.7790 o         1 MOL     -0.762314
     48 O8         -1.6520    1.7920   -4.7540 o         1 MOL     -0.762314
     49 H21        -2.0170    3.2090   -1.3860 hn        1 MOL      0.151785
     50 H22        -3.8650    5.0110   -2.7200 h1        1 MOL      0.107535
     51 H23        -2.4500    4.1710   -4.2700 hc        1 MOL      0.056272
     52 H24        -3.9050    3.3090   -4.5540 hc        1 MOL      0.056272
     53 N5         -5.0360    2.7910   -0.8740 n         1 MOL      0.083399
     54 C17        -6.2270    2.2570   -0.2170 c3        1 MOL     -0.093732
     55 C18        -6.9230    1.0740   -0.9120 c         1 MOL      0.519694
     56 O9         -8.0410    1.2360   -1.4280 o         1 MOL     -0.585031
     57 H25        -4.1960    2.7880   -0.3250 hn        1 MOL     -0.007206
     58 H26        -6.9220    3.0800   -0.0890 h1        1 MOL      0.058557
     59 H27        -6.0460    1.9080    0.8070 h1        1 MOL      0.058557
     60 N6         -6.3470   -0.1020   -0.9070 n         1 MOL     -0.262585
     61 C19        -6.8740   -1.4040   -1.5090 c3        1 MOL     -0.002295
     62 C20        -6.8580   -2.6360   -0.5140 c         1 MOL      0.437099
     63 O10        -7.1160   -3.7610   -0.9000 o         1 MOL     -0.522570
     64 C21        -6.0030   -1.6400   -2.7500 c3        1 MOL     -0.059697
     65 C22        -4.5200   -1.6010   -2.4080 c         1 MOL      0.651067
     66 O11        -3.7160   -1.2670   -3.3080 o         1 MOL     -0.699402
     67 O12        -4.1350   -1.9780   -1.2470 o         1 MOL     -0.699402
     68 H28        -5.4160   -0.2540   -0.5420 hn        1 MOL      0.115705
     69 H29        -7.9110   -1.3440   -1.8470 h1        1 MOL      0.092975
     70 H30        -6.3030   -0.9670   -3.5440 hc        1 MOL      0.035734
     71 H31        -6.2780   -2.6310   -3.1110 hc        1 MOL      0.035734
     72 N7         -6.5610   -2.4190    0.7840 n         1 MOL     -0.317370
     73 C23        -6.5790   -3.3860    1.8490 c3        1 MOL     -0.087838
     74 C24        -5.2520   -4.0770    2.0430 c         1 MOL      0.492549
     75 O13        -5.2600   -5.1050    2.7500 o         1 MOL     -0.589781
     76 H32        -6.2710   -1.4690    0.9900 hn        1 MOL      0.225744
     77 H33        -7.3620   -4.1430    1.7850 h1        1 MOL      0.092297
     78 H34        -6.6830   -2.8760    2.8030 h1        1 MOL      0.092297
     79 N8         -4.2210   -3.6370    1.3940 n         1 MOL     -0.192238
     80 C25        -2.9300   -4.2730    1.4370 c3        1 MOL     -0.259668
     81 C26        -1.8100   -3.2850    1.2850 c         1 MOL      0.692896
     82 O14        -1.9330   -2.1550    0.8570 o         1 MOL     -0.653253
     83 C27        -2.7450   -5.2820    0.2660 c3        1 MOL      0.558917
     84 C28        -3.2320   -6.6430    0.6010 c3        1 MOL     -0.523036
     85 O15        -3.4590   -4.9960   -0.9090 oh        1 MOL     -0.632703
     86 H35        -4.3260   -2.6850    1.0610 hn        1 MOL      0.297725
     87 H36        -2.7400   -4.8760    2.3220 h1        1 MOL      0.098551
     88 H37        -1.7090   -5.4900   -0.0100 h1        1 MOL     -0.008806
     89 H38        -4.2250   -4.4620   -0.6810 ho        1 MOL      0.403566
     90 H39        -3.2620   -7.3180   -0.2560 hc        1 MOL      0.125947
     91 H40        -2.5440   -7.0820    1.3340 hc        1 MOL      0.125947
     92 H41        -4.2880   -6.6460    0.8590 hc        1 MOL      0.125947
     93 N9         -0.6140   -3.7430    1.7230 n         1 MOL     -0.576919
     94 C29         0.6430   -2.8600    1.8330 c3        1 MOL      0.050464
     95 C30         1.8490   -3.5100    1.1400 c         1 MOL      0.355797
     96 O16         2.2390   -4.6430    1.4850 o         1 MOL     -0.485397
     97 C31         0.9310   -2.7240    3.3700 c3        1 MOL     -0.026267
     98 C32        -0.2420   -2.0060    4.0470 c3        1 MOL      0.265767
     99 C33         2.3080   -2.1420    3.6790 c3        1 MOL     -0.121384
    100 C34        -0.0890   -1.4980    5.4720 c3        1 MOL     -0.424586
    101 H42        -0.5950   -4.5950    2.2490 hn        1 MOL      0.316627
    102 H43         0.4980   -1.9070    1.3280 h1        1 MOL      0.072941
    103 H44         1.0130   -3.7260    3.7890 hc        1 MOL      0.041935
    104 H45        -1.0200   -2.7710    4.0680 hc        1 MOL     -0.034678
    105 H46        -0.6410   -1.1910    3.4360 hc        1 MOL     -0.034678
    106 H47         2.3310   -1.0930    3.3530 hc        1 MOL      0.033450
    107 H48         2.5420   -2.0860    4.7350 hc        1 MOL      0.033450
    108 H49         3.0980   -2.6950    3.1700 hc        1 MOL      0.033450
    109 H50         0.8610   -0.9710    5.4840 hc        1 MOL      0.097643
    110 H51        -0.9520   -0.8780    5.7180 hc        1 MOL      0.097643
    111 H52        -0.0140   -2.4230    6.0420 hc        1 MOL      0.097643
    112 N10         2.2260   -2.8300    0.0270 n         1 MOL     -0.189568
    113 C35         3.4250   -3.1680   -0.7740 c3        1 MOL     -0.031768
    114 C36         4.7760   -2.7220   -0.2190 c         1 MOL      0.446907
    115 O17         4.8060   -1.9760    0.7600 o         1 MOL     -0.313096
    116 C37         3.3180   -2.6130   -2.2240 c3        1 MOL      0.142492
    117 C38         2.0960   -3.2790   -2.8600 c3        1 MOL     -0.220361
    118 O18         3.1130   -1.1450   -2.2010 oh        1 MOL     -0.537532
    119 H53         1.8280   -1.9220   -0.1250 hn        1 MOL      0.198349
    120 H54         3.5270   -4.2540   -0.8520 h1        1 MOL      0.078241
    121 H55         4.2390   -2.9430   -2.6960 h1        1 MOL      0.047440
    122 H56         2.3390   -1.0130   -1.6360 ho        1 MOL      0.361265
    123 H57         1.9170   -2.8740   -3.8530 hc        1 MOL      0.065407
    124 H58         2.1380   -4.3440   -3.0780 hc        1 MOL      0.065407
    125 H59         1.2180   -3.0110   -2.2760 hc        1 MOL      0.065407
    126 N11         5.8880   -3.1760   -0.7880 n         1 MOL     -0.502404
    127 C39         7.2900   -2.5890   -0.5370 c3        1 MOL     -0.029039
    128 C40         7.3050   -1.0610   -0.5360 c         1 MOL      0.318959
    129 O19         7.8750   -0.4720    0.3950 o         1 MOL     -0.476910
    130 C41         8.3800   -3.1880   -1.4570 c3        1 MOL      0.405535
    131 C42         9.8050   -2.5460   -1.6350 c3        1 MOL     -0.454010
    132 O20         8.5530   -4.5290   -1.0330 oh        1 MOL     -0.605194
    133 H60         5.7720   -3.7620   -1.6050 hn        1 MOL      0.293267
    134 H61         7.5170   -2.9150    0.4710 h1        1 MOL      0.180830
    135 H62         7.8920   -3.2410   -2.4270 h1        1 MOL     -0.044920
    136 H63         8.6150   -5.0410   -1.8400 ho        1 MOL      0.392589
    137 H64        10.4820   -3.0210   -2.3440 hc        1 MOL      0.136523
    138 H65         9.6500   -1.5130   -1.9290 hc        1 MOL      0.136523
    139 H66        10.1590   -2.6710   -0.6070 hc        1 MOL      0.136523
    140 N12         6.7140   -0.3420   -1.5060 n         1 MOL     -0.319345
    141 C43         6.7700    1.1860   -1.4970 c3        1 MOL     -0.081654
    142 C44         5.9230    1.8750   -0.4140 c         1 MOL      0.367757
    143 O21         6.0920    3.0650   -0.1690 o         1 MOL     -0.505815
    144 C45         6.3880    1.7790   -2.8190 c3        1 MOL     -0.319529
    145 C46         4.8360    1.8260   -3.1370 c3        1 MOL      0.311769
    146 C47         4.6570    2.0240   -4.6310 c3        1 MOL     -0.273036
    147 C48         3.1880    2.3750   -5.0390 c3        1 MOL      0.099995
    148 N13         3.0780    2.6310   -6.4770 n4        1 MOL     -0.118743
    149 H67         6.2600   -0.8090   -2.2830 hn        1 MOL      0.253183
    150 H68         7.8120    1.3680   -1.2520 h1        1 MOL      0.177591
    151 H69         6.8170    1.2460   -3.6670 hc        1 MOL      0.102529
    152 H70         6.7050    2.8210   -2.8300 hc        1 MOL      0.102529
    153 H71         4.3150    2.6340   -2.6340 hc        1 MOL      0.011582
    154 H72         4.4370    0.8240   -2.9520 hc        1 MOL      0.011582
    155 H73         5.0470    1.1810   -5.2040 hc        1 MOL      0.051575
    156 H74         5.3080    2.8670   -4.8950 hc        1 MOL      0.051575
    157 H75         2.8100    3.2650   -4.5330 hx        1 MOL      0.059774
    158 H76         2.6310    1.5060   -4.7000 hx        1 MOL      0.059774
    159 H77         3.6010    3.4480   -6.7510 hn        1 MOL      0.267189
    160 H78         3.6040    1.9340   -7.0000 hn        1 MOL      0.267189
    161 H79         2.1680    2.6470   -6.9180 hn        1 MOL      0.267189
    162 N14         5.0730    1.1170    0.2640 n         1 MOL     -0.085437
    163 C49         4.1790    1.5950    1.3240 c3        1 MOL     -0.141008
    164 C50         4.7350    1.1960    2.6850 c         1 MOL      0.568104
    165 O22         4.5820    1.8710    3.6730 o         1 MOL     -0.569476
    166 C51         2.7750    1.0220    1.2350 c3        1 MOL      0.243888
    167 C52         2.1420    1.4150   -0.0980 c3        1 MOL     -0.156486
    168 C53         0.8520    0.7570   -0.4080 c         1 MOL      0.639798
    169 O23         0.8640   -0.4640   -0.6240 o         1 MOL     -0.652528
    170 O24        -0.1780    1.4410   -0.5350 o         1 MOL     -0.652528
    171 H80         4.8750    0.2030   -0.1280 hn        1 MOL      0.196637
    172 H81         4.3160    2.6790    1.3130 h1        1 MOL      0.077943
    173 H82         2.1860    1.4620    2.0490 hc        1 MOL     -0.031855
    174 H83         2.7940   -0.0660    1.2970 hc        1 MOL     -0.031855
    175 H84         2.8240    1.1380   -0.9030 hc        1 MOL     -0.015373
    176 H85         2.0190    2.4950   -0.0230 hc        1 MOL     -0.015373
    177 N15         5.3690    0.0020    2.7250 n         1 MOL     -0.300812
    178 C54         5.6290   -0.6960    4.0010 c3        1 MOL     -0.159070
    179 H86         6.6800   -0.9820    4.0500 h1        1 MOL      0.089524
    180 H87         5.3960   -0.0300    4.8340 h1        1 MOL      0.089524
    181 H88         5.0060   -1.5880    4.0620 h1        1 MOL      0.089524
    182 H89         5.2870   -0.4750    1.8440 hn        1 MOL      0.128577
    183 Ca1        -1.7810   -0.7020   -1.3750 Ca        1 MOL      1.767014
    184 O25        -0.6440   -0.6590   -3.7510 oh        1 MOL     -0.885757
    185 H90        -1.0370    0.0330   -4.2870 ho        1 MOL      0.405792
    186 H91        -0.2760   -1.2760   -4.3890 ho        1 MOL      0.405792
    187 O26        -1.4430   -3.2630   -2.0980 oh        1 MOL     -0.885757
    188 H92        -2.2050   -3.8410   -2.0760 ho        1 MOL      0.405792
    189 H93        -1.0090   -3.4690   -2.9210 ho        1 MOL      0.405792
@<TRIPOS>BOND
     1    1    2 1   
     2    1    4 1   
     3    1    5 1   
     4    1    6 1   
     5    2    3 2   
     6    2    7 1   
     7    7    8 1   
     8    7   15 1   
     9    8    9 1   
    10    8   11 1   
    11    8   16 1   
    12    9   10 2   
    13    9   19 1   
    14   11   12 1   
    15   11   17 1   
    16   11   18 1   
    17   12   13 1   
    18   12   14 1   
    19   19   20 1   
    20   19   28 1   
    21   20   21 1   
    22   20   23 1   
    23   20   29 1   
    24   21   22 2   
    25   21   41 1   
    26   23   24 1   
    27   23   30 1   
    28   23   31 1   
    29   24   25 1   
    30   24   32 1   
    31   24   33 1   
    32   25   26 1   
    33   25   34 1   
    34   25   35 1   
    35   26   27 1   
    36   26   36 1   
    37   26   37 1   
    38   27   38 1   
    39   27   39 1   
    40   27   40 1   
    41   41   42 1   
    42   41   49 1   
    43   42   43 1   
    44   42   45 1   
    45   42   50 1   
    46   43   44 2   
    47   43   53 1   
    48   45   46 1   
    49   45   51 1   
    50   45   52 1   
    51   46   47 1   
    52   46   48 1   
    53   53   54 1   
    54   53   57 1   
    55   54   55 1   
    56   54   58 1   
    57   54   59 1   
    58   55   56 2   
    59   55   60 1   
    60   60   61 1   
    61   60   68 1   
    62   61   62 1   
    63   61   64 1   
    64   61   69 1   
    65   62   63 2   
    66   62   72 1   
    67   64   65 1   
    68   64   70 1   
    69   64   71 1   
    70   65   66 1   
    71   65   67 1   
    72   72   73 1   
    73   72   76 1   
    74   73   74 1   
    75   73   77 1   
    76   73   78 1   
    77   74   75 2   
    78   74   79 1   
    79   79   80 1   
    80   79   86 1   
    81   80   81 1   
    82   80   83 1   
    83   80   87 1   
    84   81   82 2   
    85   81   93 1   
    86   83   84 1   
    87   83   85 1   
    88   83   88 1   
    89   84   90 1   
    90   84   91 1   
    91   84   92 1   
    92   85   89 1   
    93   93   94 1   
    94   93  101 1   
    95   94   95 1   
    96   94   97 1   
    97   94  102 1   
    98   95   96 2   
    99   95  112 1   
   100   97   98 1   
   101   97   99 1   
   102   97  103 1   
   103   98  100 1   
   104   98  104 1   
   105   98  105 1   
   106   99  106 1   
   107   99  107 1   
   108   99  108 1   
   109  100  109 1   
   110  100  110 1   
   111  100  111 1   
   112  112  113 1   
   113  112  119 1   
   114  113  114 1   
   115  113  116 1   
   116  113  120 1   
   117  114  115 2   
   118  114  126 1   
   119  116  117 1   
   120  116  118 1   
   121  116  121 1   
   122  117  123 1   
   123  117  124 1   
   124  117  125 1   
   125  118  122 1   
   126  126  127 1   
   127  126  133 1   
   128  127  128 1   
   129  127  130 1   
   130  127  134 1   
   131  128  129 2   
   132  128  140 1   
   133  130  131 1   
   134  130  132 1   
   135  130  135 1   
   136  131  137 1   
   137  131  138 1   
   138  131  139 1   
   139  132  136 1   
   140  140  141 1   
   141  140  149 1   
   142  141  142 1   
   143  141  144 1   
   144  141  150 1   
   145  142  143 2   
   146  142  162 1   
   147  144  145 1   
   148  144  151 1   
   149  144  152 1   
   150  145  146 1   
   151  145  153 1   
   152  145  154 1   
   153  146  147 1   
   154  146  155 1   
   155  146  156 1   
   156  147  148 1   
   157  147  157 1   
   158  147  158 1   
   159  148  159 1   
   160  148  160 1   
   161  148  161 1   
   162  162  163 1   
   163  162  171 1   
   164  163  164 1   
   165  163  166 1   
   166  163  172 1   
   167  164  165 2   
   168  164  177 1   
   169  166  167 1   
   170  166  173 1   
   171  166  174 1   
   172  167  168 1   
   173  167  175 1   
   174  167  176 1   
   175  168  169 1   
   176  168  170 1   
   177  177  178 1   
   178  177  182 1   
   179  178  179 1   
   180  178  180 1   
   181  178  181 1   
   182  184  185 1   
   183  184  186 1   
   184  187  188 1   
   185  187  189 1   
@<TRIPOS>SUBSTRUCTURE
     1 MOL         1 TEMP              0 ****  ****    0 ROOT
