@<TRIPOS>MOLECULE
MOL
  175   173     1     0     0
SMALL
resp


@<TRIPOS>ATOM
      1 C1          0.6770    4.1410    5.6280 c3        1 MOL     -0.371603
      2 C2          0.1290    4.3160    4.1850 c         1 MOL      0.712606
      3 O1          0.8840    4.5780    3.2680 o         1 MOL     -0.542959
      4 H1          0.0590    4.7110    6.3210 hc        1 MOL      0.089555
      5 H2          0.6510    3.0860    5.9010 hc        1 MOL      0.089555
      6 H3          1.7030    4.5050    5.6730 hc        1 MOL      0.089555
      7 N1         -1.1750    4.1110    3.9580 n         1 MOL     -0.666133
      8 C3         -1.8170    3.8640    2.6440 c3        1 MOL      0.251135
      9 C4         -1.9520    5.0240    1.5880 c         1 MOL      0.546973
     10 O2         -2.0390    6.1930    1.9850 o         1 MOL     -0.593787
     11 C5         -3.2300    3.2960    2.9080 c3        1 MOL     -0.336350
     12 C6         -3.8860    2.6360    1.7140 c         1 MOL      0.785591
     13 O3         -3.1850    2.0880    0.8620 o         1 MOL     -0.700603
     14 O4         -5.1430    2.5210    1.7160 o         1 MOL     -0.700603
     15 H4         -1.7360    4.0070    4.7890 hn        1 MOL      0.319796
     16 H5         -1.2040    3.0780    2.1840 h1        1 MOL      0.056780
     17 H6         -3.8360    4.1310    3.2970 hc        1 MOL      0.060213
     18 H7         -3.0460    2.5360    3.6580 hc        1 MOL      0.060213
     19 N2         -1.9660    4.6830    0.3570 n         1 MOL     -0.486896
     20 C7         -1.9660    5.5920   -0.8620 c3        1 MOL      0.220298
     21 C8         -2.8280    5.0160   -2.1020 c         1 MOL      0.388878
     22 O5         -2.8070    5.4700   -3.2070 o         1 MOL     -0.500918
     23 C9         -0.4610    5.9630   -1.1560 c3        1 MOL     -0.093129
     24 H8         -1.7360    3.7010    0.2430 hn        1 MOL      0.377624
     25 H9         -2.4060    6.5560   -0.5970 h1        1 MOL      0.019424
     26 H10         0.0120    6.4300   -0.2980 hc        1 MOL      0.027162
     27 H11         0.0370    5.0210   -1.3880 hc        1 MOL      0.027162
     28 H12        -0.3950    6.6950   -1.9540 hc        1 MOL      0.027162
     29 N3         -3.4990    3.8220   -1.8530 n         1 MOL     -0.237922
     30 C10        -4.4500    3.2350   -2.8320 c3        1 MOL      0.005043
     31 C11        -5.7380    2.5240   -2.3340 c         1 MOL      0.291415
     32 O6         -6.6560    2.2800   -3.1430 o         1 MOL     -0.542168
     33 C12        -3.6090    2.2430   -3.7180 c3        1 MOL     -0.150287
     34 C13        -2.8650    1.2170   -2.8350 c         1 MOL      0.658232
     35 O7         -1.6840    0.9150   -3.1120 o         1 MOL     -0.675057
     36 O8         -3.5240    0.5800   -1.9440 o         1 MOL     -0.675057
     37 H13        -3.4720    3.4260   -0.9190 hn        1 MOL      0.061799
     38 H14        -4.7060    3.9630   -3.5980 h1        1 MOL      0.099904
     39 H15        -2.9480    2.8660   -4.3140 hc        1 MOL      0.050282
     40 H16        -4.2940    1.7490   -4.4000 hc        1 MOL      0.050282
     41 N4         -5.8480    2.1200   -1.0740 n         1 MOL     -0.048393
     42 C14        -7.1060    1.6890   -0.4710 c3        1 MOL     -0.377826
     43 C15        -7.3390    0.2040   -0.7320 c         1 MOL      0.505977
     44 O9         -8.4090   -0.3520   -0.4110 o         1 MOL     -0.598776
     45 H17        -4.9890    2.2340   -0.5420 hn        1 MOL      0.166182
     46 H18        -7.9650    2.2050   -0.9100 h1        1 MOL      0.170398
     47 H19        -7.1030    1.9370    0.5890 h1        1 MOL      0.170398
     48 N5         -6.3740   -0.4880   -1.4230 n         1 MOL     -0.245929
     49 C16        -6.5110   -1.8670   -1.9900 c3        1 MOL     -0.123038
     50 C17        -6.6350   -3.0230   -1.0060 c         1 MOL      0.472013
     51 O10        -6.9410   -4.1430   -1.4800 o         1 MOL     -0.538375
     52 C18        -5.3730   -2.1320   -3.0140 c3        1 MOL     -0.119847
     53 C19        -3.8910   -2.3040   -2.4110 c         1 MOL      0.240982
     54 N6         -2.8980   -2.4830   -3.2250 n         1 MOL     -0.552958
     55 O11        -3.6550   -2.2090   -1.2450 o         1 MOL      0.018224
     56 H20        -5.5720    0.0740   -1.6320 hn        1 MOL      0.293168
     57 H21        -7.4300   -1.8920   -2.5700 h1        1 MOL      0.121512
     58 H22        -5.2660   -1.2850   -3.6970 hc        1 MOL      0.054208
     59 H23        -5.6210   -2.9970   -3.6290 hc        1 MOL      0.054208
     60 H24        -3.0120   -2.6030   -4.2150 hn        1 MOL      0.317993
     61 H25        -1.9630   -2.4210   -2.8440 hn        1 MOL      0.317993
     62 N7         -6.4500   -2.7060    0.2920 n         1 MOL     -0.147839
     63 C20        -6.5670   -3.6990    1.3610 c3        1 MOL     -0.313992
     64 C21        -5.3070   -4.4790    1.7210 c         1 MOL      0.613779
     65 O12        -5.3950   -5.4500    2.4090 o         1 MOL     -0.577143
     66 H26        -6.0770   -1.7960    0.4640 hn        1 MOL      0.192271
     67 H27        -7.4020   -4.3570    1.1230 h1        1 MOL      0.125401
     68 H28        -6.7960   -3.1220    2.2560 h1        1 MOL      0.125401
     69 N8         -4.1180   -4.0030    1.2580 n         1 MOL     -0.018135
     70 C22        -2.7810   -4.5250    1.5580 c3        1 MOL     -0.426032
     71 C23        -1.6980   -3.4160    1.7610 c         1 MOL      0.674948
     72 O13        -1.9060   -2.3470    1.2590 o         1 MOL     -0.529580
     73 C24        -2.3310   -5.4060    0.3580 c3        1 MOL      0.708565
     74 C25        -3.1320   -6.6710    0.3360 c3        1 MOL     -0.539819
     75 O14        -2.3420   -4.7970   -0.8560 oh        1 MOL     -0.580333
     76 H29        -4.1530   -3.2260    0.6200 hn        1 MOL     -0.135473
     77 H30        -2.7930   -5.1990    2.4110 h1        1 MOL      0.109042
     78 H31        -1.2920   -5.6800    0.5670 h1        1 MOL     -0.077755
     79 H32        -2.4470   -3.8770   -0.5890 ho        1 MOL      0.228465
     80 H33        -3.1910   -7.2010    1.2800 hc        1 MOL      0.120428
     81 H34        -4.1290   -6.4060   -0.0100 hc        1 MOL      0.120428
     82 H35        -2.5710   -7.3850   -0.2560 hc        1 MOL      0.120428
     83 N9         -0.5560   -3.6730    2.3840 n         1 MOL     -0.501321
     84 C26         0.7090   -2.8300    2.2460 c3        1 MOL     -0.067200
     85 C27         1.4920   -3.1010    0.9490 c         1 MOL      0.523797
     86 O15         1.7390   -4.2650    0.7310 o         1 MOL     -0.589684
     87 C28         1.6020   -2.8160    3.5040 c3        1 MOL      0.493515
     88 C29         0.9180   -2.5330    4.8490 c3        1 MOL      0.028171
     89 C30         2.7550   -1.7530    3.2650 c3        1 MOL     -0.502148
     90 C31         1.7700   -3.0330    6.0510 c3        1 MOL     -0.124532
     91 H36        -0.4990   -4.6190    2.7400 hn        1 MOL      0.272483
     92 H37         0.3690   -1.7970    2.1740 h1        1 MOL     -0.042348
     93 H38         2.0900   -3.7920    3.5340 hc        1 MOL     -0.094650
     94 H39        -0.0150   -3.0790    4.8230 hc        1 MOL     -0.015439
     95 H40         0.7650   -1.4470    4.8790 hc        1 MOL     -0.015439
     96 H41         3.5340   -1.9490    4.0040 hc        1 MOL      0.097446
     97 H42         3.2820   -1.9380    2.3320 hc        1 MOL      0.097446
     98 H43         2.3260   -0.7560    3.2900 hc        1 MOL      0.097446
     99 H44         1.0850   -2.9580    6.8940 hc        1 MOL      0.017460
    100 H45         1.9860   -4.0790    5.8530 hc        1 MOL      0.017460
    101 H46         2.7050   -2.4720    6.1680 hc        1 MOL      0.017460
    102 N10         1.7590   -2.1100    0.1380 n         1 MOL     -0.151184
    103 C32         2.5630   -2.1460   -1.0580 c3        1 MOL      0.145915
    104 C33         3.9570   -1.5140   -0.7340 c         1 MOL      0.262530
    105 O16         4.0760   -0.6020    0.1000 o         1 MOL     -0.223204
    106 C34         1.8200   -1.4920   -2.2270 c3        1 MOL     -0.276739
    107 C35         0.3190   -1.8830   -2.3800 c         1 MOL      0.759020
    108 O17        -0.5710   -1.6030   -1.5800 o         1 MOL     -0.699284
    109 O18        -0.0450   -2.5180   -3.4010 o         1 MOL     -0.699284
    110 H47         1.3980   -1.2170    0.4300 hn        1 MOL      0.129238
    111 H48         2.7040   -3.1990   -1.3220 h1        1 MOL      0.030005
    112 H49         2.2860   -1.7300   -3.1820 hc        1 MOL      0.070436
    113 H50         1.8140   -0.4050   -2.1780 hc        1 MOL      0.070436
    114 N11         5.0110   -2.0260   -1.4080 n         1 MOL     -0.483367
    115 C36         6.4610   -1.7160   -1.0880 c3        1 MOL      0.124595
    116 C37         6.7340   -0.1880   -1.2270 c         1 MOL      0.367482
    117 O19         7.3950    0.3470   -0.3700 o         1 MOL     -0.487130
    118 C38         7.3310   -2.5160   -2.0990 c3        1 MOL     -0.291603
    119 C39         8.7810   -2.3080   -1.7120 ca        1 MOL      0.115224
    120 C40         9.2610   -2.9540   -0.5280 ca        1 MOL     -0.151329
    121 C41         9.6360   -1.5580   -2.4910 ca        1 MOL     -0.151329
    122 C42        10.6230   -2.9330   -0.2850 ca        1 MOL     -0.102763
    123 C43        10.9390   -1.3750   -2.1270 ca        1 MOL     -0.102763
    124 C44        11.4450   -2.0730   -1.0070 ca        1 MOL     -0.136006
    125 H51         4.9190   -2.7660   -2.0900 hn        1 MOL      0.325397
    126 H52         6.6120   -2.0760   -0.0750 h1        1 MOL      0.130231
    127 H53         7.1890   -2.2040   -3.1300 hc        1 MOL      0.102699
    128 H54         7.0410   -3.5660   -2.0170 hc        1 MOL      0.102699
    129 H55         8.6040   -3.4670    0.1590 ha        1 MOL      0.117462
    130 H56         9.3230   -1.0220   -3.3740 ha        1 MOL      0.117462
    131 H57        10.9350   -3.4260    0.6160 ha        1 MOL      0.108889
    132 H58        11.5950   -0.7420   -2.7030 ha        1 MOL      0.108889
    133 H59        12.4570   -1.8900   -0.6740 ha        1 MOL      0.107007
    134 N12         6.1560    0.6130   -2.1600 n         1 MOL     -0.062154
    135 C45         6.2350    2.0820   -2.0950 c3        1 MOL     -0.085369
    136 C46         5.5290    2.7340   -0.9000 c         1 MOL      0.333788
    137 O20         5.6810    3.9650   -0.7080 o         1 MOL     -0.529891
    138 C47         5.5460    2.6250   -3.3260 c3        1 MOL     -0.083684
    139 C48         4.6030    1.5650   -3.7830 c3        1 MOL      0.001666
    140 C49         5.2450    0.3060   -3.2410 c3        1 MOL     -0.019752
    141 H60         7.2580    2.4540   -2.1290 h1        1 MOL      0.110212
    142 H61         4.9590    3.5370   -3.2260 hc        1 MOL      0.050809
    143 H62         6.3650    2.7170   -4.0510 hc        1 MOL      0.050809
    144 H63         3.6240    1.8040   -3.3580 hc        1 MOL      0.037204
    145 H64         4.5960    1.5420   -4.8730 hc        1 MOL      0.037204
    146 H65         4.4720   -0.4250   -3.0370 h1        1 MOL      0.014051
    147 H66         5.9090   -0.1500   -3.9740 h1        1 MOL      0.014051
    148 N13         4.6830    2.0420   -0.0880 n         1 MOL      0.025681
    149 C50         4.1440    2.5740    1.1410 c3        1 MOL     -0.204920
    150 C51         4.9420    2.0590    2.3060 c         1 MOL      0.496285
    151 O21         5.1710    2.8670    3.2030 o         1 MOL     -0.566123
    152 C52         2.6880    2.0210    1.3120 c3        1 MOL     -0.101540
    153 C53         1.7930    2.5150    0.1880 c3        1 MOL     -0.139744
    154 C54         0.4490    1.7700    0.2790 c         1 MOL      0.537697
    155 O22        -0.5440    2.1930   -0.3250 o         1 MOL     -0.660646
    156 O23         0.2900    0.7400    1.0030 o         1 MOL     -0.660646
    157 H67         4.3550    1.1220   -0.3440 hn        1 MOL      0.141556
    158 H68         4.1320    3.6640    1.2450 h1        1 MOL      0.154840
    159 H69         2.2150    2.2930    2.2570 hc        1 MOL      0.069507
    160 H70         2.6390    0.9360    1.2640 hc        1 MOL      0.069507
    161 H71         2.2010    2.3690   -0.8060 hc        1 MOL      0.077506
    162 H72         1.5090    3.5630    0.3460 hc        1 MOL      0.077506
    163 N14         5.6240    0.9240    2.2260 n         1 MOL     -0.102604
    164 C55         6.5460    0.3830    3.2730 c3        1 MOL     -0.289563
    165 H73         6.1050    0.5350    4.2580 h1        1 MOL      0.108767
    166 H74         6.7040   -0.6820    3.1060 h1        1 MOL      0.108767
    167 H75         7.5020    0.9050    3.2200 h1        1 MOL      0.108767
    168 H76         5.5390    0.4340    1.3400 hn        1 MOL      0.047186
    169 Ca1        -1.9870   -0.0230   -0.0780 Ca        1 MOL      1.632052
    170 O24        -1.5530    0.2570    2.8570 oh        1 MOL     -0.769102
    171 H77        -1.6340    0.5610    3.7660 ho        1 MOL      0.376384
    172 H78        -0.7860    0.7190    2.5170 ho        1 MOL      0.376384
    173 O25        -4.4910   -0.4410    1.2370 oh        1 MOL     -0.769102
    174 H79        -5.0270   -0.8180    1.9270 ho        1 MOL      0.376384
    175 H80        -4.5470    0.5080    1.3760 ho        1 MOL      0.376384
@<TRIPOS>BOND
     1    1    2 1   
     2    1    4 1   
     3    1    5 1   
     4    1    6 1   
     5    2    3 2   
     6    2    7 1   
     7    7    8 1   
     8    7   15 1   
     9    8    9 1   
    10    8   11 1   
    11    8   16 1   
    12    9   10 2   
    13    9   19 1   
    14   11   12 1   
    15   11   17 1   
    16   11   18 1   
    17   12   13 1   
    18   12   14 1   
    19   19   20 1   
    20   19   24 1   
    21   20   21 1   
    22   20   23 1   
    23   20   25 1   
    24   21   22 2   
    25   21   29 1   
    26   23   26 1   
    27   23   27 1   
    28   23   28 1   
    29   29   30 1   
    30   29   37 1   
    31   30   31 1   
    32   30   33 1   
    33   30   38 1   
    34   31   32 2   
    35   31   41 1   
    36   33   34 1   
    37   33   39 1   
    38   33   40 1   
    39   34   35 1   
    40   34   36 1   
    41   41   42 1   
    42   41   45 1   
    43   42   43 1   
    44   42   46 1   
    45   42   47 1   
    46   43   44 2   
    47   43   48 1   
    48   48   49 1   
    49   48   56 1   
    50   49   50 1   
    51   49   52 1   
    52   49   57 1   
    53   50   51 2   
    54   50   62 1   
    55   52   53 1   
    56   52   58 1   
    57   52   59 1   
    58   53   54 1   
    59   53   55 2   
    60   54   60 1   
    61   54   61 1   
    62   62   63 1   
    63   62   66 1   
    64   63   64 1   
    65   63   67 1   
    66   63   68 1   
    67   64   65 2   
    68   64   69 1   
    69   69   70 1   
    70   69   76 1   
    71   70   71 1   
    72   70   73 1   
    73   70   77 1   
    74   71   72 2   
    75   71   83 1   
    76   73   74 1   
    77   73   75 1   
    78   73   78 1   
    79   74   80 1   
    80   74   81 1   
    81   74   82 1   
    82   75   79 1   
    83   83   84 1   
    84   83   91 1   
    85   84   85 1   
    86   84   87 1   
    87   84   92 1   
    88   85   86 2   
    89   85  102 1   
    90   87   88 1   
    91   87   89 1   
    92   87   93 1   
    93   88   90 1   
    94   88   94 1   
    95   88   95 1   
    96   89   96 1   
    97   89   97 1   
    98   89   98 1   
    99   90   99 1   
   100   90  100 1   
   101   90  101 1   
   102  102  103 1   
   103  102  110 1   
   104  103  104 1   
   105  103  106 1   
   106  103  111 1   
   107  104  105 2   
   108  104  114 1   
   109  106  107 1   
   110  106  112 1   
   111  106  113 1   
   112  107  108 1   
   113  107  109 1   
   114  114  115 1   
   115  114  125 1   
   116  115  116 1   
   117  115  118 1   
   118  115  126 1   
   119  116  117 2   
   120  116  134 1   
   121  118  119 1   
   122  118  127 1   
   123  118  128 1   
   124  119  120 ar  
   125  119  121 ar  
   126  120  122 ar  
   127  120  129 1   
   128  121  123 ar  
   129  121  130 1   
   130  122  124 ar  
   131  122  131 1   
   132  123  124 ar  
   133  123  132 1   
   134  124  133 1   
   135  134  135 1   
   136  134  140 1   
   137  135  136 1   
   138  135  138 1   
   139  135  141 1   
   140  136  137 2   
   141  136  148 1   
   142  138  139 1   
   143  138  142 1   
   144  138  143 1   
   145  139  140 1   
   146  139  144 1   
   147  139  145 1   
   148  140  146 1   
   149  140  147 1   
   150  148  149 1   
   151  148  157 1   
   152  149  150 1   
   153  149  152 1   
   154  149  158 1   
   155  150  151 2   
   156  150  163 1   
   157  152  153 1   
   158  152  159 1   
   159  152  160 1   
   160  153  154 1   
   161  153  161 1   
   162  153  162 1   
   163  154  155 1   
   164  154  156 1   
   165  163  164 1   
   166  163  168 1   
   167  164  165 1   
   168  164  166 1   
   169  164  167 1   
   170  170  171 1   
   171  170  172 1   
   172  173  174 1   
   173  173  175 1   
@<TRIPOS>SUBSTRUCTURE
     1 MOL         1 TEMP              0 ****  ****    0 ROOT
