@<TRIPOS>MOLECULE
MOL
  175   173     1     0     0
SMALL
resp


@<TRIPOS>ATOM
      1 C1          0.4560    3.8260    5.7310 c3        1 MOL     -0.365461
      2 C2         -0.1290    3.7960    4.3190 c         1 MOL      0.737059
      3 O1          0.6570    3.9660    3.3960 o         1 MOL     -0.546626
      4 H1          1.4610    3.4050    5.7160 hc        1 MOL      0.086422
      5 H2          0.4990    4.8550    6.0850 hc        1 MOL      0.086422
      6 H3         -0.1740    3.2370    6.3980 hc        1 MOL      0.086422
      7 N1         -1.4410    3.8190    4.1030 n         1 MOL     -0.720336
      8 C3         -2.0540    3.6520    2.7730 c3        1 MOL      0.238784
      9 C4         -2.0830    4.9360    1.9110 c         1 MOL      0.698444
     10 O2         -2.2320    6.0250    2.4050 o         1 MOL     -0.589491
     11 C5         -3.4390    2.9470    2.9330 c3        1 MOL     -0.391170
     12 C6         -4.0650    2.6010    1.5940 c         1 MOL      0.671184
     13 O3         -5.2970    2.6700    1.4590 o         1 MOL     -0.627441
     14 O4         -3.3050    2.2160    0.6840 o         1 MOL     -0.627441
     15 H4         -2.0300    3.8940    4.9150 hn        1 MOL      0.343241
     16 H5         -1.3880    2.9400    2.2910 h1        1 MOL      0.020590
     17 H6         -3.9810    3.7340    3.4590 hc        1 MOL      0.084611
     18 H7         -3.3260    2.0960    3.5950 hc        1 MOL      0.084611
     19 N2         -2.1750    4.7180    0.5900 n         1 MOL     -0.667910
     20 C7         -2.2940    5.7330   -0.4630 c3        1 MOL      0.319946
     21 C8         -3.0880    5.1960   -1.7210 c         1 MOL      0.414228
     22 O5         -3.3120    5.9860   -2.6490 o         1 MOL     -0.553015
     23 C9         -0.9130    6.1730   -0.8150 c3        1 MOL     -0.277485
     24 H8         -2.2320    3.7240    0.4080 hn        1 MOL      0.383186
     25 H9         -2.8490    6.6070   -0.1130 h1        1 MOL      0.013487
     26 H10        -0.9360    7.1180   -1.3670 hc        1 MOL      0.068959
     27 H11        -0.1900    6.1390    0.0040 hc        1 MOL      0.068959
     28 H12        -0.5830    5.5390   -1.6390 hc        1 MOL      0.068959
     29 N3         -3.5990    3.9350   -1.7720 n         1 MOL     -0.265002
     30 C10        -4.4320    3.4660   -2.9960 c3        1 MOL      0.012649
     31 C11        -5.7630    2.6850   -2.7550 c         1 MOL      0.409713
     32 O6         -6.5470    2.4370   -3.6560 o         1 MOL     -0.553067
     33 C12        -3.6110    2.5080   -3.8580 c3        1 MOL     -0.179725
     34 C13        -2.9460    1.4420   -2.8870 c         1 MOL      0.679560
     35 O7         -3.6560    0.8950   -1.9890 o         1 MOL     -0.690739
     36 O8         -1.7680    1.0890   -2.9870 o         1 MOL     -0.690739
     37 H13        -3.4930    3.3250   -0.9770 hn        1 MOL      0.157051
     38 H14        -4.7550    4.3610   -3.5290 h1        1 MOL      0.099268
     39 H15        -2.8090    3.0880   -4.3200 hc        1 MOL      0.058805
     40 H16        -4.1050    1.9800   -4.6790 hc        1 MOL      0.058805
     41 N4         -6.0060    2.3560   -1.5010 n         1 MOL     -0.230195
     42 C14        -7.2650    1.6840   -1.0070 c3        1 MOL     -0.115895
     43 C15        -7.3710    0.1020   -1.2920 c         1 MOL      0.393773
     44 O9         -8.4500   -0.5230   -0.9770 o         1 MOL     -0.576545
     45 H17        -5.3310    2.5910   -0.7880 hn        1 MOL      0.161526
     46 H18        -8.1880    2.1880   -1.3070 h1        1 MOL      0.096965
     47 H19        -7.2810    1.8460    0.0700 h1        1 MOL      0.096965
     48 N5         -6.2650   -0.4860   -1.8280 n         1 MOL     -0.171800
     49 C16        -6.3390   -1.8610   -2.2730 c3        1 MOL     -0.089306
     50 C17        -6.3190   -2.9120   -1.0830 c         1 MOL      0.386068
     51 O10        -6.1890   -4.1360   -1.2810 o         1 MOL     -0.498911
     52 C18        -5.0890   -2.0800   -3.2220 c3        1 MOL     -0.124826
     53 C19        -3.7020   -2.2480   -2.5920 c         1 MOL      0.634547
     54 N6         -2.7900   -2.6420   -3.3540 n         1 MOL     -0.588856
     55 O11        -3.4760   -2.0480   -1.4170 o         1 MOL     -0.585782
     56 H20        -5.4220    0.0600   -1.9760 hn        1 MOL      0.238472
     57 H21        -7.2910   -1.9030   -2.8070 h1        1 MOL      0.120157
     58 H22        -5.0610   -1.2800   -3.9600 hc        1 MOL      0.045957
     59 H23        -5.3230   -2.9410   -3.8500 hc        1 MOL      0.045957
     60 H24        -2.9050   -2.8000   -4.3470 hn        1 MOL      0.309944
     61 H25        -1.8400   -2.7150   -3.0230 hn        1 MOL      0.309944
     62 N7         -6.3320   -2.4200    0.1680 n         1 MOL     -0.081055
     63 C20        -6.5570   -3.3070    1.3590 c3        1 MOL     -0.302906
     64 C21        -5.3920   -4.0100    1.8600 c         1 MOL      0.561046
     65 O12        -5.3440   -4.8710    2.7920 o         1 MOL     -0.604897
     66 H26        -6.2090   -1.4550    0.4150 hn        1 MOL      0.197457
     67 H27        -7.4040   -3.9770    1.1910 h1        1 MOL      0.123331
     68 H28        -6.8120   -2.6650    2.2020 h1        1 MOL      0.123331
     69 N8         -4.2320   -3.7340    1.2650 n         1 MOL     -0.104944
     70 C22        -2.8890   -4.3180    1.5410 c3        1 MOL     -0.263936
     71 C23        -1.6330   -3.3660    1.4660 c         1 MOL      0.509369
     72 O13        -1.7810   -2.3680    0.7900 o         1 MOL     -0.530906
     73 C24        -2.5590   -5.4230    0.5010 c3        1 MOL      0.611178
     74 C25        -3.3920   -6.6920    0.8910 c3        1 MOL     -0.401061
     75 O14        -2.9140   -4.9800   -0.7310 oh        1 MOL     -0.579772
     76 H29        -4.2320   -3.0820    0.4960 hn        1 MOL      0.120258
     77 H30        -2.8000   -4.7330    2.5440 h1        1 MOL      0.090887
     78 H31        -1.5250   -5.7790    0.5110 h1        1 MOL     -0.065278
     79 H32        -2.7730   -4.0220   -0.6550 ho        1 MOL      0.298078
     80 H33        -2.9320   -7.5420    0.4040 hc        1 MOL      0.083843
     81 H34        -3.2540   -6.8870    1.9550 hc        1 MOL      0.083843
     82 H35        -4.4720   -6.6620    0.7450 hc        1 MOL      0.083843
     83 N9         -0.5560   -3.7040    2.1760 n         1 MOL     -0.369998
     84 C26         0.7130   -2.9990    2.0560 c3        1 MOL     -0.035104
     85 C27         1.3290   -3.2740    0.6710 c         1 MOL      0.554873
     86 O15         1.6470   -4.4110    0.3770 o         1 MOL     -0.582633
     87 C28         1.6120   -3.2800    3.2980 c3        1 MOL      0.084811
     88 C29         1.0750   -2.3720    4.4400 c3        1 MOL      0.172065
     89 C30         3.1140   -2.9310    3.0470 c3        1 MOL     -0.336388
     90 C31         1.8250   -2.5870    5.7240 c3        1 MOL     -0.205269
     91 H36        -0.4700   -4.6390    2.5410 hn        1 MOL      0.243713
     92 H37         0.4630   -1.9530    1.9290 h1        1 MOL     -0.009632
     93 H38         1.5080   -4.3490    3.5020 hc        1 MOL      0.027342
     94 H39         0.0670   -2.7620    4.5830 hc        1 MOL     -0.045295
     95 H40         1.0780   -1.3170    4.1580 hc        1 MOL     -0.045295
     96 H41         3.1250   -1.8710    2.7630 hc        1 MOL      0.082673
     97 H42         3.7100   -3.0370    3.9500 hc        1 MOL      0.082673
     98 H43         3.5400   -3.5040    2.2250 hc        1 MOL      0.082673
     99 H44         1.2800   -2.0980    6.5440 hc        1 MOL      0.039283
    100 H45         2.0000   -3.6190    6.0200 hc        1 MOL      0.039283
    101 H46         2.7280   -1.9690    5.6950 hc        1 MOL      0.039283
    102 N10         1.5850   -2.1940   -0.0270 n         1 MOL     -0.281841
    103 C32         2.5380   -2.2930   -1.1710 c3        1 MOL     -0.070727
    104 C33         4.0580   -1.8780   -0.8520 c         1 MOL      0.589720
    105 O16         4.2630   -1.3250    0.1690 o         1 MOL     -0.381798
    106 C34         1.9780   -1.4090   -2.3200 c3        1 MOL     -0.270906
    107 C35         0.5570   -1.9130   -2.6510 c         1 MOL      0.789450
    108 O17        -0.3990   -1.3800   -2.0440 o         1 MOL     -0.697369
    109 O18         0.3750   -2.5800   -3.7030 o         1 MOL     -0.697369
    110 H47         1.2680   -1.2970    0.2860 hn        1 MOL      0.211424
    111 H48         2.6270   -3.3140   -1.5270 h1        1 MOL      0.068416
    112 H49         2.6090   -1.4450   -3.1970 hc        1 MOL      0.070665
    113 H50         1.9870   -0.3990   -1.9170 hc        1 MOL      0.070665
    114 N11         4.9910   -2.0010   -1.7810 n         1 MOL     -0.714281
    115 C36         6.3950   -1.6480   -1.6210 c3        1 MOL      0.388137
    116 C37         6.6790   -0.2610   -0.9100 c         1 MOL      0.494004
    117 O19         7.3450   -0.2450    0.1430 o         1 MOL     -0.551496
    118 C38         7.2580   -1.7690   -2.9080 c3        1 MOL     -0.191185
    119 C39         8.7390   -1.3510   -2.8000 ca        1 MOL      0.119969
    120 C40         9.5870   -1.8270   -1.8260 ca        1 MOL     -0.198262
    121 C41         9.2400   -0.3830   -3.6760 ca        1 MOL     -0.198262
    122 C42        10.8750   -1.4010   -1.8380 ca        1 MOL     -0.063502
    123 C43        10.5670    0.1240   -3.6130 ca        1 MOL     -0.063502
    124 C44        11.4230   -0.4410   -2.7000 ca        1 MOL     -0.142465
    125 H51         4.7070   -2.5240   -2.6070 hn        1 MOL      0.350200
    126 H52         6.8490   -2.3110   -0.8910 h1        1 MOL      0.007687
    127 H53         6.7910   -1.1660   -3.6980 hc        1 MOL      0.052572
    128 H54         7.2610   -2.8130   -3.2280 hc        1 MOL      0.052572
    129 H55         9.2620   -2.6130   -1.1560 ha        1 MOL      0.118120
    130 H56         8.4760    0.0460   -4.3080 ha        1 MOL      0.118120
    131 H57        11.4680   -1.8010   -1.0240 ha        1 MOL      0.094364
    132 H58        10.8770    0.8570   -4.3350 ha        1 MOL      0.094364
    133 H59        12.4730   -0.1780   -2.6720 ha        1 MOL      0.107251
    134 N12         6.2150    0.8960   -1.4040 n         1 MOL     -0.115533
    135 C45         6.5140    2.2440   -0.8210 c3        1 MOL     -0.174301
    136 C46         5.8370    2.5680    0.4760 c         1 MOL      0.497185
    137 O20         6.1590    3.5660    1.0920 o         1 MOL     -0.533249
    138 C47         6.1220    3.2870   -1.9130 c3        1 MOL     -0.147339
    139 C48         4.8600    2.5720   -2.4420 c3        1 MOL      0.186901
    140 C49         5.2360    1.0330   -2.4490 c3        1 MOL     -0.151533
    141 H60         7.5930    2.2070   -0.7430 h1        1 MOL      0.117144
    142 H61         5.9330    4.2590   -1.4580 hc        1 MOL      0.074543
    143 H62         6.8090    3.3280   -2.7580 hc        1 MOL      0.074543
    144 H63         3.9850    2.7190   -1.8170 hc        1 MOL     -0.023125
    145 H64         4.6990    2.9610   -3.4530 hc        1 MOL     -0.023125
    146 H65         4.3080    0.4990   -2.2620 h1        1 MOL      0.054139
    147 H66         5.6960    0.7340   -3.3900 h1        1 MOL      0.054139
    148 N13         4.9390    1.6940    0.8810 n         1 MOL     -0.199165
    149 C50         4.3210    1.7080    2.1790 c3        1 MOL     -0.038545
    150 C51         4.9170    0.7040    3.1120 c         1 MOL      0.385156
    151 O21         4.7620    0.9420    4.3330 o         1 MOL     -0.553897
    152 C52         2.7460    1.4380    2.0710 c3        1 MOL     -0.083686
    153 C53         2.0380    2.0390    0.8020 c3        1 MOL     -0.115812
    154 C54         0.6480    1.4410    0.4760 c         1 MOL      0.697131
    155 O22         0.4110    0.2300    0.7000 o         1 MOL     -0.744042
    156 O23        -0.2860    2.1160    0.0420 o         1 MOL     -0.744042
    157 H67         4.7420    0.8670    0.3320 hn        1 MOL      0.183380
    158 H68         4.4400    2.6100    2.7760 h1        1 MOL      0.098033
    159 H69         2.1960    1.6730    2.9790 hc        1 MOL      0.086454
    160 H70         2.5980    0.3570    1.9290 hc        1 MOL      0.086454
    161 H71         2.6370    1.7880   -0.0650 hc        1 MOL      0.068169
    162 H72         1.8530    3.1080    0.9090 hc        1 MOL      0.068169
    163 N14         5.5530   -0.3910    2.6650 n         1 MOL     -0.009556
    164 C55         6.4080   -1.2540    3.4420 c3        1 MOL     -0.064693
    165 H73         7.4470   -1.0910    3.1550 h1        1 MOL      0.038040
    166 H74         6.2850   -1.0290    4.5020 h1        1 MOL      0.038040
    167 H75         6.1390   -2.2950    3.2590 h1        1 MOL      0.038040
    168 H76         5.5970   -0.5590    1.6680 hn        1 MOL      0.029213
    169 Ca1        -1.9350   -0.0460   -0.4010 Ca        1 MOL      1.724887
    170 O24        -4.3510   -0.3070    1.0540 oh        1 MOL     -0.737220
    171 H77        -4.2870    0.6400    0.8850 ho        1 MOL      0.371737
    172 H78        -4.7810   -0.3670    1.9060 ho        1 MOL      0.371737
    173 O25        -1.7470    0.0610    2.4850 oh        1 MOL     -0.737220
    174 H79        -1.7580    0.2320    3.4250 ho        1 MOL      0.371737
    175 H80        -0.9240    0.4500    2.1820 ho        1 MOL      0.371737
@<TRIPOS>BOND
     1    1    2 1   
     2    1    4 1   
     3    1    5 1   
     4    1    6 1   
     5    2    3 2   
     6    2    7 1   
     7    7    8 1   
     8    7   15 1   
     9    8    9 1   
    10    8   11 1   
    11    8   16 1   
    12    9   10 2   
    13    9   19 1   
    14   11   12 1   
    15   11   17 1   
    16   11   18 1   
    17   12   13 1   
    18   12   14 1   
    19   19   20 1   
    20   19   24 1   
    21   20   21 1   
    22   20   23 1   
    23   20   25 1   
    24   21   22 2   
    25   21   29 1   
    26   23   26 1   
    27   23   27 1   
    28   23   28 1   
    29   29   30 1   
    30   29   37 1   
    31   30   31 1   
    32   30   33 1   
    33   30   38 1   
    34   31   32 2   
    35   31   41 1   
    36   33   34 1   
    37   33   39 1   
    38   33   40 1   
    39   34   35 1   
    40   34   36 1   
    41   41   42 1   
    42   41   45 1   
    43   42   43 1   
    44   42   46 1   
    45   42   47 1   
    46   43   44 2   
    47   43   48 1   
    48   48   49 1   
    49   48   56 1   
    50   49   50 1   
    51   49   52 1   
    52   49   57 1   
    53   50   51 2   
    54   50   62 1   
    55   52   53 1   
    56   52   58 1   
    57   52   59 1   
    58   53   54 1   
    59   53   55 2   
    60   54   60 1   
    61   54   61 1   
    62   62   63 1   
    63   62   66 1   
    64   63   64 1   
    65   63   67 1   
    66   63   68 1   
    67   64   65 2   
    68   64   69 1   
    69   69   70 1   
    70   69   76 1   
    71   70   71 1   
    72   70   73 1   
    73   70   77 1   
    74   71   72 2   
    75   71   83 1   
    76   73   74 1   
    77   73   75 1   
    78   73   78 1   
    79   74   80 1   
    80   74   81 1   
    81   74   82 1   
    82   75   79 1   
    83   83   84 1   
    84   83   91 1   
    85   84   85 1   
    86   84   87 1   
    87   84   92 1   
    88   85   86 2   
    89   85  102 1   
    90   87   88 1   
    91   87   89 1   
    92   87   93 1   
    93   88   90 1   
    94   88   94 1   
    95   88   95 1   
    96   89   96 1   
    97   89   97 1   
    98   89   98 1   
    99   90   99 1   
   100   90  100 1   
   101   90  101 1   
   102  102  103 1   
   103  102  110 1   
   104  103  104 1   
   105  103  106 1   
   106  103  111 1   
   107  104  105 2   
   108  104  114 1   
   109  106  107 1   
   110  106  112 1   
   111  106  113 1   
   112  107  108 1   
   113  107  109 1   
   114  114  115 1   
   115  114  125 1   
   116  115  116 1   
   117  115  118 1   
   118  115  126 1   
   119  116  117 2   
   120  116  134 1   
   121  118  119 1   
   122  118  127 1   
   123  118  128 1   
   124  119  120 ar  
   125  119  121 ar  
   126  120  122 ar  
   127  120  129 1   
   128  121  123 ar  
   129  121  130 1   
   130  122  124 ar  
   131  122  131 1   
   132  123  124 ar  
   133  123  132 1   
   134  124  133 1   
   135  134  135 1   
   136  134  140 1   
   137  135  136 1   
   138  135  138 1   
   139  135  141 1   
   140  136  137 2   
   141  136  148 1   
   142  138  139 1   
   143  138  142 1   
   144  138  143 1   
   145  139  140 1   
   146  139  144 1   
   147  139  145 1   
   148  140  146 1   
   149  140  147 1   
   150  148  149 1   
   151  148  157 1   
   152  149  150 1   
   153  149  152 1   
   154  149  158 1   
   155  150  151 2   
   156  150  163 1   
   157  152  153 1   
   158  152  159 1   
   159  152  160 1   
   160  153  154 1   
   161  153  161 1   
   162  153  162 1   
   163  154  155 1   
   164  154  156 1   
   165  163  164 1   
   166  163  168 1   
   167  164  165 1   
   168  164  166 1   
   169  164  167 1   
   170  170  171 1   
   171  170  172 1   
   172  173  174 1   
   173  173  175 1   
@<TRIPOS>SUBSTRUCTURE
     1 MOL         1 TEMP              0 ****  ****    0 ROOT
