@<TRIPOS>MOLECULE
MOL
  186   183     1     0     0
SMALL
resp


@<TRIPOS>ATOM
      1 C1         -0.7830    3.6500    5.0630 c3        1 MOL     -0.190206
      2 C2         -0.8970    3.1790    3.6720 c         1 MOL      0.571720
      3 O1         -0.0010    3.3060    2.8590 o         1 MOL     -0.530486
      4 H1          0.1720    4.1590    5.1960 hc        1 MOL      0.048622
      5 H2         -1.5960    4.3430    5.2820 hc        1 MOL      0.048622
      6 H3         -0.8380    2.7990    5.7410 hc        1 MOL      0.048622
      7 N1         -2.0430    2.5980    3.3680 n         1 MOL     -0.428030
      8 C3         -2.4110    2.1810    2.0440 c3        1 MOL      0.118471
      9 C4         -2.6620    3.3570    1.1400 c         1 MOL      0.234439
     10 O2         -3.6160    4.0860    1.2930 o         1 MOL     -0.532062
     11 C5         -3.6720    1.2650    2.1600 c3        1 MOL     -0.124242
     12 C6         -4.0970    0.5430    0.8650 c         1 MOL      0.671854
     13 O3         -3.4970    0.8250   -0.2360 o         1 MOL     -0.646122
     14 O4         -5.1170   -0.1750    0.8430 o         1 MOL     -0.646122
     15 H4         -2.6910    2.3270    4.1020 hn        1 MOL      0.291358
     16 H5         -1.6000    1.5900    1.6150 h1        1 MOL      0.001869
     17 H6         -4.4860    1.8710    2.5570 hc        1 MOL      0.032263
     18 H7         -3.5890    0.3990    2.8260 hc        1 MOL      0.032263
     19 N2         -1.7550    3.5570    0.2240 n         1 MOL     -0.016589
     20 C7         -1.7780    4.7590   -0.6290 c3        1 MOL     -0.049527
     21 C8         -2.5870    4.5790   -1.9280 c         1 MOL      0.421748
     22 O5         -2.4980    5.4160   -2.8440 o         1 MOL     -0.540462
     23 C9         -0.3500    5.0090   -1.1500 c3        1 MOL     -0.015672
     24 C10         0.6130    5.3440   -0.0480 c3        1 MOL      0.041988
     25 C11         0.3030    6.6010    0.8370 c3        1 MOL     -0.225307
     26 C12        -0.5650    6.2440    2.0850 c3        1 MOL      0.322136
     27 N3         -0.9240    7.4790    2.7930 n4        1 MOL     -0.617605
     28 H8         -1.0930    2.8080    0.0810 hn        1 MOL      0.241382
     29 H9         -2.2540    5.5520   -0.0650 h1        1 MOL      0.056638
     30 H10        -0.3690    5.8850   -1.8000 hc        1 MOL      0.027365
     31 H11         0.0810    4.1180   -1.6090 hc        1 MOL      0.027365
     32 H12         1.5530    5.5460   -0.5650 hc        1 MOL      0.041015
     33 H13         0.7310    4.4760    0.5910 hc        1 MOL      0.041015
     34 H14        -0.4260    7.1460    0.2360 hc        1 MOL      0.055238
     35 H15         1.2160    7.1490    1.0980 hc        1 MOL      0.055238
     36 H16         0.0090    5.5650    2.7120 hx        1 MOL      0.013838
     37 H17        -1.3720    5.6110    1.7200 hx        1 MOL      0.013838
     38 H18        -1.7400    7.8960    2.3760 hn        1 MOL      0.376793
     39 H19        -1.2030    7.3080    3.7510 hn        1 MOL      0.376793
     40 H20        -0.1180    8.0880    2.7420 hn        1 MOL      0.376793
     41 N4         -3.2490    3.4290   -2.0660 n         1 MOL     -0.154494
     42 C13        -4.0750    3.2170   -3.3000 c3        1 MOL     -0.047225
     43 C14        -5.5420    2.7110   -3.0020 c         1 MOL      0.519400
     44 O6         -6.5010    2.8970   -3.7500 o         1 MOL     -0.530269
     45 C15        -3.2470    2.2550   -4.2430 c3        1 MOL     -0.014085
     46 C16        -2.6420    0.9930   -3.5700 c         1 MOL      0.802652
     47 O7         -1.4230    0.8370   -3.3500 o         1 MOL     -0.809703
     48 O8         -3.4260    0.0910   -3.2020 o         1 MOL     -0.809703
     49 H21        -3.3270    2.7170   -1.3520 hn        1 MOL      0.009163
     50 H22        -4.2200    4.1730   -3.7890 h1        1 MOL      0.093400
     51 H23        -2.4190    2.8520   -4.6270 hc        1 MOL      0.006879
     52 H24        -3.8140    2.0530   -5.1500 hc        1 MOL      0.006879
     53 N5         -5.7750    2.1500   -1.7880 n         1 MOL     -0.490685
     54 C17        -7.0910    1.7690   -1.2490 c3        1 MOL     -0.029645
     55 C18        -7.4650    0.3390   -1.5360 c         1 MOL      0.570249
     56 O9         -8.6180    0.0640   -1.4950 o         1 MOL     -0.599993
     57 H25        -5.0490    1.9420   -1.1030 hn        1 MOL      0.402897
     58 H26        -7.8760    2.4860   -1.4640 h1        1 MOL      0.067708
     59 H27        -7.0690    1.7750   -0.1540 h1        1 MOL      0.067708
     60 N6         -6.4840   -0.5140   -1.8430 n         1 MOL     -0.277628
     61 C19        -6.7600   -1.9080   -2.2470 c3        1 MOL     -0.009717
     62 C20        -7.1030   -2.7870   -1.0010 c         1 MOL      0.386302
     63 O10        -7.3410   -4.0270   -1.1140 o         1 MOL     -0.512494
     64 C21        -5.6520   -2.5250   -3.1010 c3        1 MOL     -0.227310
     65 C22        -4.3320   -3.0020   -2.4580 c         1 MOL      0.755340
     66 O11        -3.8940   -2.4180   -1.4400 o         1 MOL     -0.678164
     67 O12        -3.6920   -3.9430   -3.0780 o         1 MOL     -0.678164
     68 H28        -5.5240   -0.2080   -1.8180 hn        1 MOL      0.237023
     69 H29        -7.7110   -1.9080   -2.7790 h1        1 MOL      0.118571
     70 H30        -5.3660   -1.8300   -3.8890 hc        1 MOL      0.076048
     71 H31        -6.1610   -3.3510   -3.5900 hc        1 MOL      0.076048
     72 N7         -6.9050   -2.3210    0.2570 n         1 MOL     -0.219233
     73 C23        -7.0340   -3.0730    1.5200 c3        1 MOL     -0.296694
     74 C24        -5.7200   -3.6690    2.0810 c         1 MOL      0.543328
     75 O13        -5.8480   -4.4830    3.0550 o         1 MOL     -0.581323
     76 H32        -6.4920   -1.4100    0.3470 hn        1 MOL      0.232353
     77 H33        -7.5880   -3.9730    1.2440 h1        1 MOL      0.154479
     78 H34        -7.5360   -2.4800    2.2830 h1        1 MOL      0.154479
     79 N8         -4.5230   -3.3300    1.5400 n         1 MOL     -0.309608
     80 C25        -3.2330   -3.9250    1.8860 c3        1 MOL     -0.124522
     81 C26        -2.0420   -2.9870    1.7350 c         1 MOL      0.721522
     82 O14        -2.2090   -1.9310    1.0770 o         1 MOL     -0.644192
     83 C27        -2.9690   -5.0990    0.9330 c3        1 MOL      0.525485
     84 C28        -3.5490   -6.4270    1.4530 c3        1 MOL     -0.324497
     85 O15        -3.4290   -4.9510   -0.3560 oh        1 MOL     -0.594104
     86 H35        -4.5320   -2.6180    0.8360 hn        1 MOL      0.239698
     87 H36        -3.2630   -4.2010    2.9460 h1        1 MOL      0.091024
     88 H37        -1.9330   -5.3620    0.7800 h1        1 MOL     -0.059124
     89 H38        -3.4160   -4.0220   -0.6060 ho        1 MOL      0.414315
     90 H39        -3.0590   -6.4870    2.4300 hc        1 MOL      0.067168
     91 H40        -4.6190   -6.4130    1.6830 hc        1 MOL      0.067168
     92 H41        -3.3140   -7.2680    0.8130 hc        1 MOL      0.067168
     93 N9         -0.9010   -3.3120    2.3860 n         1 MOL     -0.752268
     94 C29         0.2720   -2.3320    2.4380 c3        1 MOL      0.051940
     95 C30         1.4960   -2.9330    1.9390 c         1 MOL      0.638582
     96 O16         2.0580   -3.8560    2.4860 o         1 MOL     -0.586825
     97 C31         0.4820   -1.7010    3.8520 c3        1 MOL      0.248915
     98 C32        -0.7250   -1.0430    4.5710 c3        1 MOL      0.105832
     99 C33         1.4880   -0.5530    3.7130 c3        1 MOL     -0.514353
    100 C34        -0.7110   -0.9420    6.0830 c3        1 MOL     -0.296731
    101 H42        -0.7830   -4.1960    2.8510 hn        1 MOL      0.359675
    102 H43         0.0140   -1.4880    1.7860 h1        1 MOL      0.046346
    103 H44         0.9040   -2.4840    4.4760 hc        1 MOL     -0.009985
    104 H45        -1.5790   -1.6820    4.3330 hc        1 MOL      0.001832
    105 H46        -1.0550   -0.1050    4.1230 hc        1 MOL      0.001832
    106 H47         2.4640   -0.8520    3.3200 hc        1 MOL      0.111546
    107 H48         1.1720    0.1420    2.9390 hc        1 MOL      0.111546
    108 H49         1.6850   -0.0080    4.6350 hc        1 MOL      0.111546
    109 H50        -1.6580   -0.4990    6.3900 hc        1 MOL      0.072434
    110 H51        -0.5460   -1.9610    6.4380 hc        1 MOL      0.072434
    111 H52         0.0310   -0.2750    6.5000 hc        1 MOL      0.072434
    112 N10         2.1060   -2.3700    0.8930 n         1 MOL     -0.348566
    113 C35         3.4120   -2.6970    0.2800 c3        1 MOL     -0.026543
    114 C36         4.6190   -1.9760    0.9330 c         1 MOL      0.332613
    115 O17         4.4340   -0.8580    1.3840 o         1 MOL     -0.242408
    116 C37         3.4550   -2.4130   -1.1890 c3        1 MOL      0.351794
    117 C38         2.4390   -3.1520   -2.0880 c3        1 MOL     -0.623468
    118 O18         3.3600   -1.0200   -1.5620 oh        1 MOL     -0.548584
    119 H53         1.6220   -1.5760    0.5220 hn        1 MOL      0.221074
    120 H54         3.5650   -3.7720    0.3440 h1        1 MOL      0.078602
    121 H55         4.4400   -2.7740   -1.4730 h1        1 MOL     -0.016577
    122 H56         2.4440   -0.8350   -1.3530 ho        1 MOL      0.378773
    123 H57         1.4040   -2.9760   -1.7930 hc        1 MOL      0.177892
    124 H58         2.6250   -2.7100   -3.0560 hc        1 MOL      0.177892
    125 H59         2.5570   -4.2320   -2.0610 hc        1 MOL      0.177892
    126 N11         5.7650   -2.6440    1.0750 n         1 MOL     -0.325112
    127 C39         7.1590   -2.0110    1.3300 c3        1 MOL     -0.223104
    128 C40         7.3920   -0.6840    0.7030 c         1 MOL      0.406972
    129 O19         7.8190    0.2690    1.3480 o         1 MOL     -0.467657
    130 C41         8.3000   -2.9680    0.9750 c3        1 MOL      0.300237
    131 C42         8.1860   -4.4000    1.6040 c3        1 MOL     -0.387965
    132 O20         8.5090   -3.2320   -0.3840 oh        1 MOL     -0.597579
    133 H60         5.7930   -3.6050    0.7490 hn        1 MOL      0.263742
    134 H61         7.1220   -1.8410    2.4100 h1        1 MOL      0.176265
    135 H62         9.2210   -2.5850    1.4130 h1        1 MOL      0.043880
    136 H63         9.4500   -3.3450   -0.4700 ho        1 MOL      0.395842
    137 H64         9.0080   -5.0860    1.3730 hc        1 MOL      0.114417
    138 H65         7.9680   -4.3310    2.6660 hc        1 MOL      0.114417
    139 H66         7.3260   -4.8500    1.0970 hc        1 MOL      0.114417
    140 N12         7.0340   -0.5820   -0.6150 n         1 MOL     -0.236048
    141 C43         7.1900    0.6340   -1.3850 c3        1 MOL     -0.098108
    142 C44         6.2640    1.7910   -0.8760 c         1 MOL      0.414053
    143 O21         6.7360    2.9300   -0.8390 o         1 MOL     -0.518565
    144 C45         7.0380    0.4700   -2.8850 c3        1 MOL     -0.202116
    145 C46         8.0380   -0.4680   -3.5930 c3        1 MOL      0.103871
    146 C47         9.5120    0.0260   -3.7820 c3        1 MOL     -0.105350
    147 C48        10.3840   -1.1390   -4.2710 c3        1 MOL      0.107171
    148 N13        10.2980   -1.4360   -5.7080 n4        1 MOL     -0.279061
    149 H67         6.5450   -1.3570   -1.0470 hn        1 MOL      0.313100
    150 H68         8.1700    1.0500   -1.1620 h1        1 MOL      0.112247
    151 H69         7.1420    1.4760   -3.2910 hc        1 MOL      0.099162
    152 H70         6.0120    0.1770   -3.1250 hc        1 MOL      0.099162
    153 H71         7.5900   -0.6340   -4.5620 hc        1 MOL     -0.022293
    154 H72         8.0860   -1.4050   -3.0400 hc        1 MOL     -0.022293
    155 H73         9.9390    0.2710   -2.8130 hc        1 MOL      0.073614
    156 H74         9.5770    0.8950   -4.4350 hc        1 MOL      0.073614
    157 H75        10.1650   -2.1000   -3.8010 hx        1 MOL      0.049300
    158 H76        11.4300   -0.8990   -4.0530 hx        1 MOL      0.049300
    159 H77        11.0460   -2.0970   -5.8560 hn        1 MOL      0.293753
    160 H78         9.4540   -1.9520   -5.8860 hn        1 MOL      0.293753
    161 H79        10.3710   -0.6490   -6.3430 hn        1 MOL      0.293753
    162 N14         5.0430    1.4640   -0.4390 n         1 MOL     -0.025022
    163 C49         4.1470    2.4020    0.2540 c3        1 MOL     -0.153706
    164 C50         4.5870    2.7520    1.6750 c         1 MOL      0.499444
    165 O22         4.3910    3.9060    2.0940 o         1 MOL     -0.582758
    166 C51         2.7520    1.7870    0.4510 c3        1 MOL      0.007925
    167 C52         1.9230    1.7150   -0.7770 c3        1 MOL      0.057829
    168 C53         0.7250    0.8260   -0.7320 c         1 MOL      0.924999
    169 O23        -0.4470    1.2450   -0.5280 o         1 MOL     -0.820848
    170 O24         0.8780   -0.4110   -0.8420 o         1 MOL     -0.820848
    171 H80         4.8200    0.4770   -0.4620 hn        1 MOL     -0.036826
    172 H81         4.1220    3.3450   -0.2800 h1        1 MOL      0.105263
    173 H82         2.2510    2.5230    1.0660 hc        1 MOL     -0.028741
    174 H83         2.8350    0.8370    0.9970 hc        1 MOL     -0.028741
    175 H84         2.4870    1.2500   -1.5790 hc        1 MOL     -0.026633
    176 H85         1.7570    2.6910   -1.2300 hc        1 MOL     -0.026633
    177 N15         5.0760    1.8660    2.4620 n         1 MOL     -0.058490
    178 C54         5.7280    2.1630    3.7350 c3        1 MOL     -0.362723
    179 H86         6.6560    2.7050    3.5490 h1        1 MOL      0.130349
    180 H87         5.0680    2.7750    4.3490 h1        1 MOL      0.130349
    181 H88         5.9510    1.2310    4.2560 h1        1 MOL      0.130349
    182 H89         5.0680    0.9070    2.1630 hn        1 MOL      0.144188
    183 Ca1        -1.8230   -0.7850   -1.2740 Ca        1 MOL      1.761645
    184 O25        -1.2780   -3.1540   -2.1700 oh        1 MOL     -1.078419
    185 H90        -0.6600   -3.4970   -2.8030 ho        1 MOL      0.460703
    186 H91        -2.1300   -3.4990   -2.4620 ho        1 MOL      0.460703
@<TRIPOS>BOND
     1    1    2 1   
     2    1    4 1   
     3    1    5 1   
     4    1    6 1   
     5    2    3 2   
     6    2    7 1   
     7    7    8 1   
     8    7   15 1   
     9    8    9 1   
    10    8   11 1   
    11    8   16 1   
    12    9   10 2   
    13    9   19 1   
    14   11   12 1   
    15   11   17 1   
    16   11   18 1   
    17   12   13 1   
    18   12   14 1   
    19   19   20 1   
    20   19   28 1   
    21   20   21 1   
    22   20   23 1   
    23   20   29 1   
    24   21   22 2   
    25   21   41 1   
    26   23   24 1   
    27   23   30 1   
    28   23   31 1   
    29   24   25 1   
    30   24   32 1   
    31   24   33 1   
    32   25   26 1   
    33   25   34 1   
    34   25   35 1   
    35   26   27 1   
    36   26   36 1   
    37   26   37 1   
    38   27   38 1   
    39   27   39 1   
    40   27   40 1   
    41   41   42 1   
    42   41   49 1   
    43   42   43 1   
    44   42   45 1   
    45   42   50 1   
    46   43   44 2   
    47   43   53 1   
    48   45   46 1   
    49   45   51 1   
    50   45   52 1   
    51   46   47 1   
    52   46   48 1   
    53   53   54 1   
    54   53   57 1   
    55   54   55 1   
    56   54   58 1   
    57   54   59 1   
    58   55   56 2   
    59   55   60 1   
    60   60   61 1   
    61   60   68 1   
    62   61   62 1   
    63   61   64 1   
    64   61   69 1   
    65   62   63 2   
    66   62   72 1   
    67   64   65 1   
    68   64   70 1   
    69   64   71 1   
    70   65   66 1   
    71   65   67 1   
    72   72   73 1   
    73   72   76 1   
    74   73   74 1   
    75   73   77 1   
    76   73   78 1   
    77   74   75 2   
    78   74   79 1   
    79   79   80 1   
    80   79   86 1   
    81   80   81 1   
    82   80   83 1   
    83   80   87 1   
    84   81   82 2   
    85   81   93 1   
    86   83   84 1   
    87   83   85 1   
    88   83   88 1   
    89   84   90 1   
    90   84   91 1   
    91   84   92 1   
    92   85   89 1   
    93   93   94 1   
    94   93  101 1   
    95   94   95 1   
    96   94   97 1   
    97   94  102 1   
    98   95   96 2   
    99   95  112 1   
   100   97   98 1   
   101   97   99 1   
   102   97  103 1   
   103   98  100 1   
   104   98  104 1   
   105   98  105 1   
   106   99  106 1   
   107   99  107 1   
   108   99  108 1   
   109  100  109 1   
   110  100  110 1   
   111  100  111 1   
   112  112  113 1   
   113  112  119 1   
   114  113  114 1   
   115  113  116 1   
   116  113  120 1   
   117  114  115 2   
   118  114  126 1   
   119  116  117 1   
   120  116  118 1   
   121  116  121 1   
   122  117  123 1   
   123  117  124 1   
   124  117  125 1   
   125  118  122 1   
   126  126  127 1   
   127  126  133 1   
   128  127  128 1   
   129  127  130 1   
   130  127  134 1   
   131  128  129 2   
   132  128  140 1   
   133  130  131 1   
   134  130  132 1   
   135  130  135 1   
   136  131  137 1   
   137  131  138 1   
   138  131  139 1   
   139  132  136 1   
   140  140  141 1   
   141  140  149 1   
   142  141  142 1   
   143  141  144 1   
   144  141  150 1   
   145  142  143 2   
   146  142  162 1   
   147  144  145 1   
   148  144  151 1   
   149  144  152 1   
   150  145  146 1   
   151  145  153 1   
   152  145  154 1   
   153  146  147 1   
   154  146  155 1   
   155  146  156 1   
   156  147  148 1   
   157  147  157 1   
   158  147  158 1   
   159  148  159 1   
   160  148  160 1   
   161  148  161 1   
   162  162  163 1   
   163  162  171 1   
   164  163  164 1   
   165  163  166 1   
   166  163  172 1   
   167  164  165 2   
   168  164  177 1   
   169  166  167 1   
   170  166  173 1   
   171  166  174 1   
   172  167  168 1   
   173  167  175 1   
   174  167  176 1   
   175  168  169 1   
   176  168  170 1   
   177  177  178 1   
   178  177  182 1   
   179  178  179 1   
   180  178  180 1   
   181  178  181 1   
   182  184  185 1   
   183  184  186 1   
@<TRIPOS>SUBSTRUCTURE
     1 MOL         1 TEMP              0 ****  ****    0 ROOT
