@<TRIPOS>MOLECULE
MOL
  189   185     1     0     0
SMALL
resp


@<TRIPOS>ATOM
      1 C1          1.1810   -5.0880    5.6360 c3        1 MOL     -0.388306
      2 C2          1.3950   -4.2540    4.3870 c         1 MOL      0.734583
      3 O1          0.9200   -3.0900    4.2720 o         1 MOL     -0.600985
      4 H1          0.2360   -4.8090    6.1010 hc        1 MOL      0.101066
      5 H2          1.1550   -6.1440    5.3680 hc        1 MOL      0.101066
      6 H3          1.9970   -4.9100    6.3360 hc        1 MOL      0.101066
      7 N1          2.1820   -4.7520    3.4250 n         1 MOL     -0.587711
      8 C3          2.5840   -4.0740    2.2310 c3        1 MOL      0.211221
      9 C4          2.9120   -4.9690    1.0370 c         1 MOL      0.431926
     10 O2          3.6920   -5.9260    1.2240 o         1 MOL     -0.582654
     11 C5          3.9240   -3.3680    2.5830 c3        1 MOL     -0.160405
     12 C6          4.5580   -2.4070    1.6330 c         1 MOL      0.867784
     13 O3          4.0550   -2.0730    0.5580 o         1 MOL     -0.771818
     14 O4          5.6810   -1.9610    1.9260 o         1 MOL     -0.771818
     15 H4          2.6380   -5.6440    3.5740 hn        1 MOL      0.306479
     16 H5          1.8930   -3.2660    1.9940 h1        1 MOL      0.007958
     17 H6          4.6140   -4.1250    2.9550 hc        1 MOL      0.021901
     18 H7          3.7520   -2.7370    3.4530 hc        1 MOL      0.021901
     19 N2          2.4260   -4.6470   -0.1570 n         1 MOL     -0.048879
     20 C7          2.5100   -5.5780   -1.2330 c3        1 MOL     -0.186836
     21 C8          3.3050   -5.0220   -2.4180 c         1 MOL      0.613601
     22 O5          3.5620   -5.7480   -3.3680 o         1 MOL     -0.605826
     23 C9          1.0500   -6.0550   -1.6230 c3        1 MOL      0.043803
     24 C10         0.3930   -4.8380   -2.3230 c3        1 MOL      0.155600
     25 C11         0.2120   -6.5700   -0.4010 c3        1 MOL     -0.164307
     26 C12        -1.0040   -5.0010   -2.9170 c3        1 MOL     -0.321210
     27 H8          1.9170   -3.7720   -0.2160 hn        1 MOL      0.075103
     28 H9          3.0550   -6.4880   -0.9570 h1        1 MOL      0.113284
     29 H10         1.1550   -6.8260   -2.3940 hc        1 MOL     -0.006019
     30 H11         1.0060   -4.6610   -3.2180 hc        1 MOL      0.025590
     31 H12         0.3530   -3.9460   -1.7080 hc        1 MOL      0.025590
     32 H13        -0.7670   -7.0220   -0.5540 hc        1 MOL      0.030678
     33 H14         0.7320   -7.2680    0.2590 hc        1 MOL      0.030678
     34 H15         0.1380   -5.7100    0.2670 hc        1 MOL      0.030678
     35 H16        -1.1930   -5.9710   -3.3700 hc        1 MOL      0.072179
     36 H17        -1.6560   -4.6840   -2.1090 hc        1 MOL      0.072179
     37 H18        -1.0530   -4.3500   -3.7900 hc        1 MOL      0.072179
     38 N3          3.9050   -3.8810   -2.2660 n         1 MOL     -0.463144
     39 C13         4.6810   -3.1700   -3.3610 c3        1 MOL     -0.002733
     40 C14         5.9090   -2.3480   -2.8870 c         1 MOL      0.450000
     41 O6          6.7330   -1.9470   -3.7280 o         1 MOL     -0.584050
     42 C15         3.6310   -2.3300   -4.1390 c3        1 MOL     -0.136223
     43 C16         2.7240   -1.4440   -3.2590 c         1 MOL      0.597352
     44 O7          3.1110   -1.1950   -2.0430 o         1 MOL     -0.635199
     45 O8          1.7080   -0.9580   -3.7900 o         1 MOL     -0.635199
     46 H19         3.6720   -3.3380   -1.4470 hn        1 MOL      0.230108
     47 H20         5.1790   -3.8490   -4.0560 h1        1 MOL      0.102310
     48 H21         3.1060   -2.9010   -4.9060 hc        1 MOL      0.059494
     49 H22         4.2050   -1.6730   -4.7970 hc        1 MOL      0.059494
     50 N4          6.1070   -2.0340   -1.6220 n         1 MOL     -0.159164
     51 C17         7.3260   -1.2940   -1.0470 c3        1 MOL     -0.387681
     52 C18         7.2830    0.2630   -1.3240 c         1 MOL      0.680719
     53 O9          8.3580    0.8580   -1.0650 o         1 MOL     -0.648334
     54 H23         5.4810   -2.4420   -0.9430 hn        1 MOL      0.212431
     55 H24         8.2130   -1.7440   -1.4830 h1        1 MOL      0.174189
     56 H25         7.3090   -1.4130    0.0290 h1        1 MOL      0.174189
     57 N5          6.2350    0.9790   -1.7680 n         1 MOL     -0.359494
     58 C19         6.3020    2.3660   -2.2790 c3        1 MOL      0.011166
     59 C20         6.4900    3.5580   -1.2320 c         1 MOL      0.364252
     60 O10         6.6120    4.7290   -1.5480 o         1 MOL     -0.507064
     61 C21         4.9960    2.5940   -3.0930 c3        1 MOL     -0.365602
     62 C22         3.6910    2.4780   -2.3790 c         1 MOL      0.871617
     63 O11         3.6770    2.0420   -1.2280 o         1 MOL     -0.749949
     64 O12         2.6930    2.8930   -3.0380 o         1 MOL     -0.749949
     65 H26         5.3900    0.4420   -1.8570 hn        1 MOL      0.222001
     66 H27         7.1840    2.3940   -2.9160 h1        1 MOL      0.099666
     67 H28         4.9940    1.7470   -3.7890 hc        1 MOL      0.102118
     68 H29         5.1090    3.5060   -3.6640 hc        1 MOL      0.102118
     69 N6          6.7260    3.1690    0.0290 n         1 MOL     -0.055676
     70 C23         6.8320    3.9740    1.2240 c3        1 MOL     -0.302867
     71 C24         5.5120    4.6300    1.7580 c         1 MOL      0.655654
     72 O13         5.5940    5.6190    2.5040 o         1 MOL     -0.575645
     73 H30         6.9860    2.1880    0.1230 hn        1 MOL      0.204056
     74 H31         7.5340    4.7650    0.9530 h1        1 MOL      0.101101
     75 H32         7.3370    3.3420    1.9470 h1        1 MOL      0.101101
     76 N7          4.3310    4.0950    1.4000 n         1 MOL     -0.497760
     77 C25         3.0000    4.5680    1.9340 c3        1 MOL      0.188390
     78 C26         2.0350    3.3720    1.9870 c         1 MOL      0.512484
     79 O14         2.1760    2.3560    1.3440 o         1 MOL     -0.528547
     80 C27         2.3410    5.7180    1.1150 c3        1 MOL     -0.072164
     81 C28         2.2530    5.7510   -0.4120 c3        1 MOL     -0.140813
     82 C29         1.5470    6.9620   -1.0290 c         1 MOL      0.657612
     83 N8          1.5680    7.1060   -2.3410 n         1 MOL     -0.805204
     84 O15         1.0790    7.9250   -0.4260 o         1 MOL     -0.586214
     85 H33         4.3260    3.4270    0.6500 hn        1 MOL      0.279156
     86 H34         3.0800    4.9690    2.9410 h1        1 MOL      0.006817
     87 H35         3.0360    6.5280    1.3530 hc        1 MOL      0.028646
     88 H36         1.3890    5.9000    1.6040 hc        1 MOL      0.028646
     89 H37         1.9120    4.7800   -0.7570 hc        1 MOL      0.082534
     90 H38         3.2600    5.7940   -0.8210 hc        1 MOL      0.082534
     91 H39         2.0480    6.4260   -2.9240 hn        1 MOL      0.360624
     92 H40         1.0020    7.8260   -2.7730 hn        1 MOL      0.360624
     93 N9          1.0330    3.3260    2.8660 n         1 MOL     -0.592873
     94 C30        -0.0730    2.2960    2.9490 c3        1 MOL      0.005627
     95 C31        -1.2900    2.8790    2.2040 c         1 MOL      0.581814
     96 O16        -1.8910    3.8910    2.4390 o         1 MOL     -0.580130
     97 C32        -0.3850    1.8790    4.3970 c3        1 MOL      0.381186
     98 C33        -1.0120    2.9490    5.2860 c3        1 MOL     -0.300545
     99 C34        -0.9820    0.5610    4.5260 c3        1 MOL     -0.300545
    100 H41         0.9320    4.0840    3.5230 hn        1 MOL      0.311183
    101 H42         0.2590    1.3670    2.4920 h1        1 MOL      0.227048
    102 H43         0.6100    1.7930    4.8330 hc        1 MOL     -0.078676
    103 H44        -1.8250    3.5010    4.8080 hc        1 MOL      0.049200
    104 H45        -1.4080    2.4320    6.1510 hc        1 MOL      0.049200
    105 H46        -0.2610    3.6840    5.5960 hc        1 MOL      0.049200
    106 H47        -0.1700   -0.1430    4.3660 hc        1 MOL      0.049200
    107 H48        -1.3990    0.3900    5.5140 hc        1 MOL      0.049200
    108 H49        -1.7480    0.5450    3.7480 hc        1 MOL      0.049200
    109 N10        -1.6770    2.1630    1.1490 n         1 MOL     -0.191614
    110 C35        -2.8620    2.3560    0.2890 c3        1 MOL     -0.026084
    111 C36        -4.1010    1.9780    1.0520 c         1 MOL      0.094644
    112 O17        -4.0850    1.1220    1.8480 o         1 MOL     -0.142588
    113 C37        -2.7040    1.5630   -1.0090 c3        1 MOL     -0.259651
    114 C38        -3.8850    1.8500   -1.9140 c         1 MOL      0.649846
    115 N11        -4.0060    3.0360   -2.4020 n         1 MOL     -0.695982
    116 O18        -4.8020    1.0850   -2.0440 o         1 MOL     -0.561098
    117 H50        -1.1250    1.3420    0.9870 hn        1 MOL      0.061984
    118 H51        -2.9980    3.4010    0.0010 h1        1 MOL      0.062669
    119 H52        -2.7180    0.5260   -0.6790 hc        1 MOL      0.140618
    120 H53        -1.7840    1.6720   -1.5780 hc        1 MOL      0.140618
    121 H54        -3.2980    3.7500   -2.2920 hn        1 MOL      0.322741
    122 H55        -4.8790    3.2720   -2.8440 hn        1 MOL      0.322741
    123 N12        -5.2080    2.6320    0.7240 n         1 MOL     -0.128619
    124 C39        -6.5430    2.2470    1.2070 c3        1 MOL     -0.053569
    125 C40        -6.9110    0.7620    1.1240 c         1 MOL      0.479614
    126 O19        -7.7060    0.2430    1.9390 o         1 MOL     -0.611548
    127 C41        -7.5600    3.0400    0.4050 c3        1 MOL     -0.057225
    128 C42        -7.6720    2.7680   -1.1140 ca        1 MOL     -0.127219
    129 C43        -8.1670    1.5110   -1.6830 ca        1 MOL     -0.045135
    130 C44        -7.1550    3.7330   -2.0350 ca        1 MOL     -0.045135
    131 C45        -8.0950    1.3250   -3.0610 ca        1 MOL     -0.377266
    132 C46        -7.1170    3.5090   -3.4110 ca        1 MOL     -0.377266
    133 C47        -7.6100    2.3070   -3.9620 ca        1 MOL      0.582121
    134 O20        -7.7570    2.2470   -5.2830 oh        1 MOL     -0.629838
    135 H56        -5.2090    3.3130   -0.0300 hn        1 MOL      0.171039
    136 H57        -6.5170    2.5700    2.2370 h1        1 MOL      0.075517
    137 H58        -7.4350    4.1140    0.5090 hc        1 MOL      0.035909
    138 H59        -8.4770    2.7430    0.9190 hc        1 MOL      0.035909
    139 H60        -8.5650    0.7860   -0.9890 ha        1 MOL      0.099974
    140 H61        -6.9490    4.7050   -1.6220 ha        1 MOL      0.099974
    141 H62        -8.5900    0.5240   -3.5710 ha        1 MOL      0.137509
    142 H63        -6.8100    4.3370   -4.0420 ha        1 MOL      0.137509
    143 H64        -7.9710    1.4020   -5.6960 ho        1 MOL      0.460564
    144 N13        -6.2870   -0.0050    0.2340 n         1 MOL      0.159541
    145 C48        -6.5610   -1.4910    0.0730 c3        1 MOL     -0.070313
    146 C49        -5.6640   -2.3860    0.8470 c         1 MOL      0.356204
    147 O21        -5.9460   -3.5670    1.1960 o         1 MOL     -0.500186
    148 C50        -6.6100   -1.7320   -1.4250 c3        1 MOL      0.095793
    149 C51        -7.5730   -2.7940   -1.8680 c3        1 MOL     -0.122080
    150 C52        -7.4050   -2.9870   -3.3740 c         1 MOL      0.679351
    151 O22        -8.0340   -2.2060   -4.0840 o         1 MOL     -0.733365
    152 O23        -6.7770   -3.9690   -3.8610 o         1 MOL     -0.733365
    153 H65        -5.7440    0.4300   -0.4980 hn        1 MOL      0.078903
    154 H66        -7.5540   -1.7370    0.4380 h1        1 MOL      0.045264
    155 H67        -5.6300   -1.8900   -1.8870 hc        1 MOL      0.027903
    156 H68        -7.0350   -0.8670   -1.9310 hc        1 MOL      0.027903
    157 H69        -8.5990   -2.4980   -1.6350 hc        1 MOL     -0.006091
    158 H70        -7.4040   -3.7390   -1.3460 hc        1 MOL     -0.006091
    159 N14        -4.5090   -1.8160    1.1730 n         1 MOL     -0.175648
    160 C53        -3.6010   -2.3730    2.1730 c3        1 MOL     -0.107443
    161 C54        -4.1830   -2.0920    3.5670 c         1 MOL      0.442239
    162 O24        -4.1040   -2.8910    4.4910 o         1 MOL     -0.561066
    163 C55        -2.1240   -1.9190    2.0130 c3        1 MOL      0.126126
    164 C56        -1.5590   -2.4090    0.7010 c3        1 MOL     -0.152463
    165 C57        -0.2440   -1.6300    0.4030 c         1 MOL      0.688401
    166 O25         0.8280   -2.2410    0.1390 o         1 MOL     -0.641318
    167 O26        -0.2980   -0.3410    0.3390 o         1 MOL     -0.641318
    168 H71        -4.3580   -0.9030    0.7790 hn        1 MOL      0.076277
    169 H72        -3.6050   -3.4680    2.1010 h1        1 MOL      0.087650
    170 H73        -1.5490   -2.3470    2.8370 hc        1 MOL      0.007053
    171 H74        -2.1090   -0.8370    1.9210 hc        1 MOL      0.007053
    172 H75        -2.2390   -2.1530   -0.1110 hc        1 MOL      0.033735
    173 H76        -1.3060   -3.4710    0.7060 hc        1 MOL      0.033735
    174 N15        -4.6830   -0.8620    3.7330 n         1 MOL     -0.020184
    175 C58        -5.2280   -0.5240    5.0860 c3        1 MOL     -0.309295
    176 H77        -6.2440   -0.1410    4.9830 h1        1 MOL      0.105930
    177 H78        -5.2390   -1.4180    5.7080 h1        1 MOL      0.105930
    178 H79        -4.6000    0.2350    5.5520 h1        1 MOL      0.105930
    179 H80        -4.6090   -0.2040    2.9780 hn        1 MOL     -0.007912
    180 Ca1         2.4720   -0.0900    0.0430 Ca        1 MOL      1.728899
    181 O27         1.9030   -0.6640    2.5760 oh        1 MOL     -0.914101
    182 H81         1.5350   -1.4790    2.9270 ho        1 MOL      0.415637
    183 H82         2.4390   -0.3210    3.2870 ho        1 MOL      0.415637
    184 O28         4.7740    0.5410    1.6270 oh        1 MOL     -0.914101
    185 H83         5.2360    1.1020    2.2540 ho        1 MOL      0.415637
    186 H84         5.0650   -0.3460    1.8440 ho        1 MOL      0.415637
    187 O29         0.9140    0.9830   -1.9700 oh        1 MOL     -0.914101
    188 H85         0.9590    0.3790   -2.7140 ho        1 MOL      0.415637
    189 H86         1.2500    1.8180   -2.3240 ho        1 MOL      0.415637
@<TRIPOS>BOND
     1    1    2 1   
     2    1    4 1   
     3    1    5 1   
     4    1    6 1   
     5    2    3 2   
     6    2    7 1   
     7    7    8 1   
     8    7   15 1   
     9    8    9 1   
    10    8   11 1   
    11    8   16 1   
    12    9   10 2   
    13    9   19 1   
    14   11   12 1   
    15   11   17 1   
    16   11   18 1   
    17   12   13 1   
    18   12   14 1   
    19   19   20 1   
    20   19   27 1   
    21   20   21 1   
    22   20   23 1   
    23   20   28 1   
    24   21   22 2   
    25   21   38 1   
    26   23   24 1   
    27   23   25 1   
    28   23   29 1   
    29   24   26 1   
    30   24   30 1   
    31   24   31 1   
    32   25   32 1   
    33   25   33 1   
    34   25   34 1   
    35   26   35 1   
    36   26   36 1   
    37   26   37 1   
    38   38   39 1   
    39   38   46 1   
    40   39   40 1   
    41   39   42 1   
    42   39   47 1   
    43   40   41 2   
    44   40   50 1   
    45   42   43 1   
    46   42   48 1   
    47   42   49 1   
    48   43   44 1   
    49   43   45 1   
    50   50   51 1   
    51   50   54 1   
    52   51   52 1   
    53   51   55 1   
    54   51   56 1   
    55   52   53 2   
    56   52   57 1   
    57   57   58 1   
    58   57   65 1   
    59   58   59 1   
    60   58   61 1   
    61   58   66 1   
    62   59   60 2   
    63   59   69 1   
    64   61   62 1   
    65   61   67 1   
    66   61   68 1   
    67   62   63 1   
    68   62   64 1   
    69   69   70 1   
    70   69   73 1   
    71   70   71 1   
    72   70   74 1   
    73   70   75 1   
    74   71   72 2   
    75   71   76 1   
    76   76   77 1   
    77   76   85 1   
    78   77   78 1   
    79   77   80 1   
    80   77   86 1   
    81   78   79 2   
    82   78   93 1   
    83   80   81 1   
    84   80   87 1   
    85   80   88 1   
    86   81   82 1   
    87   81   89 1   
    88   81   90 1   
    89   82   83 1   
    90   82   84 2   
    91   83   91 1   
    92   83   92 1   
    93   93   94 1   
    94   93  100 1   
    95   94   95 1   
    96   94   97 1   
    97   94  101 1   
    98   95   96 2   
    99   95  109 1   
   100   97   98 1   
   101   97   99 1   
   102   97  102 1   
   103   98  103 1   
   104   98  104 1   
   105   98  105 1   
   106   99  106 1   
   107   99  107 1   
   108   99  108 1   
   109  109  110 1   
   110  109  117 1   
   111  110  111 1   
   112  110  113 1   
   113  110  118 1   
   114  111  112 2   
   115  111  123 1   
   116  113  114 1   
   117  113  119 1   
   118  113  120 1   
   119  114  115 1   
   120  114  116 2   
   121  115  121 1   
   122  115  122 1   
   123  123  124 1   
   124  123  135 1   
   125  124  125 1   
   126  124  127 1   
   127  124  136 1   
   128  125  126 2   
   129  125  144 1   
   130  127  128 1   
   131  127  137 1   
   132  127  138 1   
   133  128  129 ar  
   134  128  130 ar  
   135  129  131 ar  
   136  129  139 1   
   137  130  132 ar  
   138  130  140 1   
   139  131  133 ar  
   140  131  141 1   
   141  132  133 ar  
   142  132  142 1   
   143  133  134 1   
   144  134  143 1   
   145  144  145 1   
   146  144  153 1   
   147  145  146 1   
   148  145  148 1   
   149  145  154 1   
   150  146  147 2   
   151  146  159 1   
   152  148  149 1   
   153  148  155 1   
   154  148  156 1   
   155  149  150 1   
   156  149  157 1   
   157  149  158 1   
   158  150  151 1   
   159  150  152 1   
   160  159  160 1   
   161  159  168 1   
   162  160  161 1   
   163  160  163 1   
   164  160  169 1   
   165  161  162 2   
   166  161  174 1   
   167  163  164 1   
   168  163  170 1   
   169  163  171 1   
   170  164  165 1   
   171  164  172 1   
   172  164  173 1   
   173  165  166 1   
   174  165  167 1   
   175  174  175 1   
   176  174  179 1   
   177  175  176 1   
   178  175  177 1   
   179  175  178 1   
   180  181  182 1   
   181  181  183 1   
   182  184  185 1   
   183  184  186 1   
   184  187  188 1   
   185  187  189 1   
@<TRIPOS>SUBSTRUCTURE
     1 MOL         1 TEMP              0 ****  ****    0 ROOT
