@<TRIPOS>MOLECULE
MOL
  189   185     1     0     0
SMALL
resp


@<TRIPOS>ATOM
      1 C1         -0.5310    3.5210    5.5630 c3        1 MOL     -0.423038
      2 C2         -0.9040    2.8980    4.2200 c         1 MOL      0.597039
      3 O1          0.0240    2.6900    3.4060 o         1 MOL     -0.564378
      4 H1         -0.3090    4.5790    5.4220 hc        1 MOL      0.118851
      5 H2         -1.3640    3.4140    6.2580 hc        1 MOL      0.118851
      6 H3          0.3460    3.0160    5.9670 hc        1 MOL      0.118851
      7 N1         -2.1540    2.6030    3.8440 n         1 MOL     -0.462363
      8 C3         -2.5840    1.9760    2.5090 c3        1 MOL     -0.008987
      9 C4         -3.1400    3.1130    1.6410 c         1 MOL      0.435412
     10 O2         -4.2320    3.6410    1.8960 o         1 MOL     -0.484354
     11 C5         -3.6480    0.9090    2.8110 c3        1 MOL     -0.236643
     12 C6         -4.0480    0.1500    1.5600 c         1 MOL      0.774501
     13 O3         -3.4430    0.4610    0.5020 o         1 MOL     -0.696258
     14 O4         -5.0070   -0.6410    1.6330 o         1 MOL     -0.696258
     15 H4         -2.9400    2.6080    4.4720 hn        1 MOL      0.300999
     16 H5         -1.6020    1.6210    2.1800 h1        1 MOL      0.002381
     17 H6         -4.5440    1.3000    3.2850 hc        1 MOL      0.080868
     18 H7         -3.1520    0.1920    3.4610 hc        1 MOL      0.080868
     19 N2         -2.2180    3.6580    0.8300 n         1 MOL     -0.249601
     20 C7         -2.4930    4.9320    0.1720 c3        1 MOL      0.015534
     21 C8         -3.6760    5.0040   -0.8160 c         1 MOL      0.365502
     22 O5         -4.2860    6.0460   -1.0030 o         1 MOL     -0.569035
     23 C9         -1.2600    5.5590   -0.4120 c3        1 MOL     -0.019313
     24 C10        -0.3220    6.2040    0.6010 c3        1 MOL      0.058527
     25 C11         0.8680    6.9650   -0.0040 c3        1 MOL     -0.345354
     26 C12         1.8500    7.3580    1.1070 c3        1 MOL      0.242147
     27 N3          2.9930    8.0930    0.5100 n4        1 MOL     -0.456292
     28 H8         -1.3740    3.1360    0.6390 hn        1 MOL      0.276099
     29 H9         -2.7670    5.5670    1.0120 h1        1 MOL      0.054269
     30 H10        -1.6070    6.3490   -1.0790 hc        1 MOL      0.027053
     31 H11        -0.7320    4.7940   -0.9720 hc        1 MOL      0.027053
     32 H12        -0.0100    5.4970    1.3660 hc        1 MOL      0.029186
     33 H13        -0.9100    6.9800    1.0850 hc        1 MOL      0.029186
     34 H14         0.4310    7.8560   -0.4560 hc        1 MOL      0.109729
     35 H15         1.4520    6.3740   -0.7090 hc        1 MOL      0.109729
     36 H16         2.2000    6.5990    1.8130 hx        1 MOL      0.059705
     37 H17         1.3380    8.0240    1.7930 hx        1 MOL      0.059705
     38 H18         3.3850    7.5730   -0.2710 hn        1 MOL      0.340849
     39 H19         2.7200    8.9770    0.1250 hn        1 MOL      0.340849
     40 H20         3.7790    8.1670    1.1350 hn        1 MOL      0.340849
     41 N4         -4.0110    3.9460   -1.4340 n         1 MOL     -0.069210
     42 C13        -5.1480    3.6810   -2.3110 c3        1 MOL     -0.152572
     43 C14        -6.2060    2.7810   -1.6420 c         1 MOL      0.528601
     44 O6         -7.2070    2.6720   -2.3020 o         1 MOL     -0.511227
     45 C15        -4.6590    3.0920   -3.6420 c3        1 MOL     -0.154241
     46 C16        -3.6140    1.9990   -3.5990 c         1 MOL      0.619384
     47 O7         -3.2870    1.6040   -4.7510 o         1 MOL     -0.634646
     48 O8         -3.0510    1.5800   -2.5750 o         1 MOL     -0.634646
     49 H21        -3.3370    3.1920   -1.3150 hn        1 MOL      0.093717
     50 H22        -5.6470    4.6340   -2.4680 h1        1 MOL      0.133232
     51 H23        -4.4400    3.8900   -4.3620 hc        1 MOL      0.077693
     52 H24        -5.5490    2.6680   -4.0980 hc        1 MOL      0.077693
     53 N5         -6.0520    2.2480   -0.4060 n         1 MOL     -0.212412
     54 C17        -7.1680    1.5600    0.2600 c3        1 MOL     -0.216385
     55 C18        -7.6460    0.3580   -0.6160 c         1 MOL      0.522695
     56 O9         -8.8270    0.2520   -0.8730 o         1 MOL     -0.558004
     57 H25        -5.2120    2.2870    0.1400 hn        1 MOL      0.165052
     58 H26        -8.0100    2.2190    0.4160 h1        1 MOL      0.116230
     59 H27        -6.8450    1.1100    1.2020 h1        1 MOL      0.116230
     60 N6         -6.7480   -0.5980   -0.8150 n         1 MOL     -0.139166
     61 C19        -7.0240   -1.8710   -1.5880 c3        1 MOL     -0.119431
     62 C20        -6.8860   -3.0550   -0.6420 c         1 MOL      0.470559
     63 O10        -7.2340   -4.2160   -1.0350 o         1 MOL     -0.551833
     64 C21        -5.9740   -2.0480   -2.7850 c3        1 MOL     -0.093896
     65 C22        -4.5530   -1.8660   -2.2980 c         1 MOL      0.721817
     66 O11        -4.2340   -2.1250   -1.1800 o         1 MOL     -0.671924
     67 O12        -3.7750   -1.6100   -3.1910 o         1 MOL     -0.671924
     68 H28        -5.7830   -0.4530   -0.5340 hn        1 MOL      0.038979
     69 H29        -8.0310   -1.8930   -1.9900 h1        1 MOL      0.129852
     70 H30        -6.1610   -1.2320   -3.4860 hc        1 MOL      0.053870
     71 H31        -6.0310   -2.9320   -3.4200 hc        1 MOL      0.053870
     72 N7         -6.5160   -2.8190    0.6180 n         1 MOL     -0.327928
     73 C23        -6.3480   -3.8300    1.6690 c3        1 MOL      0.035728
     74 C24        -4.9810   -4.5270    1.7370 c         1 MOL      0.399983
     75 O13        -4.9850   -5.7120    2.1830 o         1 MOL     -0.552232
     76 H32        -6.2580   -1.9040    0.9540 hn        1 MOL      0.271836
     77 H33        -7.1960   -4.5210    1.7690 h1        1 MOL      0.050805
     78 H34        -6.4070   -3.2050    2.5680 h1        1 MOL      0.050805
     79 N8         -3.9690   -3.9620    1.1560 n         1 MOL     -0.048554
     80 C25        -2.6390   -4.5590    1.0440 c3        1 MOL     -0.382497
     81 C26        -1.4970   -3.5610    1.1050 c         1 MOL      0.704993
     82 O14        -1.6210   -2.4910    0.5710 o         1 MOL     -0.627376
     83 C27        -2.4360   -5.3690   -0.1710 c3        1 MOL      0.549874
     84 C28        -3.2110   -6.7370   -0.0850 c3        1 MOL     -0.672308
     85 O15        -2.8900   -4.6990   -1.2890 oh        1 MOL     -0.604004
     86 H35        -4.0890   -3.0680    0.7050 hn        1 MOL      0.140389
     87 H36        -2.5330   -5.2330    1.8960 h1        1 MOL      0.118808
     88 H37        -1.3670   -5.4970   -0.2910 h1        1 MOL     -0.041326
     89 H38        -3.5280   -4.0220   -1.0190 ho        1 MOL      0.397650
     90 H39        -4.2900   -6.6260   -0.1470 hc        1 MOL      0.180115
     91 H40        -2.9720   -7.3660   -0.9330 hc        1 MOL      0.180115
     92 H41        -2.9800   -7.2520    0.8530 hc        1 MOL      0.180115
     93 N9         -0.2770   -3.9630    1.4910 n         1 MOL     -0.438231
     94 C29         0.9020   -3.0770    1.6330 c3        1 MOL      0.073913
     95 C30         2.0230   -3.5820    0.7830 c         1 MOL      0.467842
     96 O16         2.5980   -4.6630    0.9870 o         1 MOL     -0.536620
     97 C31         1.2780   -2.9620    3.1330 c3        1 MOL      0.046619
     98 C32         0.2350   -2.4520    4.1210 c3        1 MOL     -0.227989
     99 C33         2.6440   -2.2330    3.3250 c3        1 MOL     -0.016757
    100 C34        -0.1730   -0.9430    3.9170 c3        1 MOL     -0.043198
    101 H42        -0.3300   -4.8650    1.9310 hn        1 MOL      0.262129
    102 H43         0.6510   -2.0550    1.3590 h1        1 MOL      0.039726
    103 H44         1.4830   -3.9580    3.5040 hc        1 MOL      0.020559
    104 H45         0.6800   -2.5860    5.1050 hc        1 MOL      0.069432
    105 H46        -0.6760   -3.0400    3.9930 hc        1 MOL      0.069432
    106 H47         2.7130   -1.2100    2.9630 hc        1 MOL     -0.007974
    107 H48         2.9800   -2.2800    4.3600 hc        1 MOL     -0.007974
    108 H49         3.4240   -2.8120    2.8230 hc        1 MOL     -0.007974
    109 H50        -0.5620   -0.6700    2.9340 hc        1 MOL      0.037680
    110 H51        -0.9720   -0.7260    4.6310 hc        1 MOL      0.037680
    111 H52         0.6880   -0.2830    4.0370 hc        1 MOL      0.037680
    112 N10         2.4190   -2.8290   -0.2170 n         1 MOL     -0.210034
    113 C35         3.6510   -2.8830   -0.8940 c3        1 MOL     -0.067512
    114 C36         4.9040   -2.4800   -0.0100 c         1 MOL      0.452399
    115 O17         4.8670   -1.9590    1.1090 o         1 MOL     -0.287458
    116 C37         3.5780   -2.0050   -2.2280 c3        1 MOL      0.223858
    117 C38         2.5330   -2.3930   -3.2680 c3        1 MOL     -0.512448
    118 O18         3.2980   -0.6100   -1.8750 oh        1 MOL     -0.692451
    119 H53         1.9300   -1.9450   -0.3280 hn        1 MOL      0.099139
    120 H54         3.8530   -3.9210   -1.1160 h1        1 MOL      0.097694
    121 H55         4.5000   -2.0290   -2.8090 h1        1 MOL      0.052846
    122 H56         2.4030   -0.6160   -1.5230 ho        1 MOL      0.516760
    123 H57         1.5620   -2.5000   -2.7770 hc        1 MOL      0.156397
    124 H58         2.3390   -1.5700   -3.9740 hc        1 MOL      0.156397
    125 H59         3.0000   -3.2510   -3.7420 hc        1 MOL      0.156397
    126 N11         6.1540   -2.6300   -0.4940 n         1 MOL     -0.454697
    127 C39         7.3390   -2.1460    0.2450 c3        1 MOL      0.008215
    128 C40         7.3650   -0.5940    0.3490 c         1 MOL      0.040512
    129 O19         7.9690   -0.0200    1.2900 o         1 MOL     -0.437877
    130 C41         8.7290   -2.4470   -0.4170 c3        1 MOL      0.452385
    131 C42         8.9950   -3.9750   -0.4120 c3        1 MOL     -0.446462
    132 O20         8.8510   -1.9910   -1.7640 oh        1 MOL     -0.606521
    133 H60         6.2830   -2.8520   -1.4660 hn        1 MOL      0.242539
    134 H61         7.3640   -2.6090    1.2320 h1        1 MOL      0.143081
    135 H62         9.4860   -2.0180    0.2480 h1        1 MOL      0.015560
    136 H63         9.7710   -1.9270   -2.0290 ho        1 MOL      0.300642
    137 H64         9.0440   -4.2940    0.6270 hc        1 MOL      0.117945
    138 H65         8.1690   -4.4900   -0.9050 hc        1 MOL      0.117945
    139 H66         9.8930   -4.1770   -1.0030 hc        1 MOL      0.117945
    140 N12         6.8340    0.1190   -0.6920 n         1 MOL      0.138473
    141 C43         6.7490    1.5460   -0.7100 c3        1 MOL     -0.078058
    142 C44         5.7240    2.0180    0.3300 c         1 MOL      0.341113
    143 O21         5.7950    3.1710    0.7880 o         1 MOL     -0.539028
    144 C45         6.3170    2.0010   -2.1250 c3        1 MOL     -0.189116
    145 C46         7.3980    2.1010   -3.2100 c3        1 MOL     -0.029634
    146 C47         8.2990    0.7790   -3.3000 c3        1 MOL     -0.011951
    147 C48         9.3480    0.8960   -4.4040 c3        1 MOL      0.099424
    148 N13        10.1100   -0.3880   -4.4680 n4        1 MOL     -0.268788
    149 H67         6.5380   -0.4860   -1.4450 hn        1 MOL      0.201171
    150 H68         7.6750    2.0790   -0.4810 h1        1 MOL      0.096983
    151 H69         5.7360    2.9250   -2.1430 hc        1 MOL      0.100413
    152 H70         5.5580    1.2630   -2.4030 hc        1 MOL      0.100413
    153 H71         8.1480    2.8850   -3.0960 hc        1 MOL      0.039232
    154 H72         6.8930    2.3850   -4.1260 hc        1 MOL      0.039232
    155 H73         7.6390   -0.0910   -3.3710 hc        1 MOL      0.004124
    156 H74         8.8200    0.6490   -2.3490 hc        1 MOL      0.004124
    157 H75        10.1200    1.6330   -4.1880 hx        1 MOL      0.054067
    158 H76         8.8250    1.2210   -5.3050 hx        1 MOL      0.054067
    159 H77        10.5190   -0.5730   -3.5670 hn        1 MOL      0.270874
    160 H78         9.4510   -1.1370   -4.6390 hn        1 MOL      0.270874
    161 H79        10.8600   -0.3540   -5.1460 hn        1 MOL      0.270874
    162 N14         4.7360    1.1950    0.7050 n         1 MOL      0.066826
    163 C49         3.8350    1.4760    1.7740 c3        1 MOL     -0.122362
    164 C50         4.3760    1.1180    3.1480 c         1 MOL      0.510535
    165 O22         4.0920    1.8860    4.0500 o         1 MOL     -0.556156
    166 C51         2.5440    0.7680    1.4420 c3        1 MOL      0.148761
    167 C52         1.8250    1.4740    0.3030 c3        1 MOL     -0.010751
    168 C53         0.6920    0.7120   -0.3170 c         1 MOL      0.604182
    169 O23         0.9110   -0.3150   -1.0680 o         1 MOL     -0.657792
    170 O24        -0.4980    1.1710   -0.4540 o         1 MOL     -0.657792
    171 H80         4.7380    0.2820    0.2760 hn        1 MOL     -0.129360
    172 H81         3.6250    2.5500    1.7110 h1        1 MOL      0.075196
    173 H82         1.8870    0.8260    2.3100 hc        1 MOL      0.032112
    174 H83         2.7580   -0.2520    1.1180 hc        1 MOL      0.032112
    175 H84         2.4990    1.8040   -0.4780 hc        1 MOL     -0.023105
    176 H85         1.3860    2.3640    0.7590 hc        1 MOL     -0.023105
    177 N15         5.0690    0.0050    3.2340 n         1 MOL     -0.138585
    178 C54         5.6970   -0.4090    4.4800 c3        1 MOL     -0.311604
    179 H86         5.7850    0.4500    5.1450 h1        1 MOL      0.118499
    180 H87         5.0860   -1.1750    4.9580 h1        1 MOL      0.118499
    181 H88         6.6890   -0.8100    4.2730 h1        1 MOL      0.118499
    182 H89         5.1040   -0.5980    2.4200 hn        1 MOL      0.174400
    183 Ca1        -1.9980   -0.6800   -1.3000 Ca        1 MOL      1.716835
    184 O25        -0.9810    0.4930   -3.7320 oh        1 MOL     -0.847779
    185 H90        -0.4410    1.2680   -3.5790 ho        1 MOL      0.393998
    186 H91        -1.8510    0.8440   -3.9510 ho        1 MOL      0.393998
    187 O26        -1.0220   -2.9420   -2.3240 oh        1 MOL     -0.847779
    188 H92        -1.4580   -3.7200   -1.9960 ho        1 MOL      0.393998
    189 H93        -0.7690   -3.1630   -3.2270 ho        1 MOL      0.393998
@<TRIPOS>BOND
     1    1    2 1   
     2    1    4 1   
     3    1    5 1   
     4    1    6 1   
     5    2    3 2   
     6    2    7 1   
     7    7    8 1   
     8    7   15 1   
     9    8    9 1   
    10    8   11 1   
    11    8   16 1   
    12    9   10 2   
    13    9   19 1   
    14   11   12 1   
    15   11   17 1   
    16   11   18 1   
    17   12   13 1   
    18   12   14 1   
    19   19   20 1   
    20   19   28 1   
    21   20   21 1   
    22   20   23 1   
    23   20   29 1   
    24   21   22 2   
    25   21   41 1   
    26   23   24 1   
    27   23   30 1   
    28   23   31 1   
    29   24   25 1   
    30   24   32 1   
    31   24   33 1   
    32   25   26 1   
    33   25   34 1   
    34   25   35 1   
    35   26   27 1   
    36   26   36 1   
    37   26   37 1   
    38   27   38 1   
    39   27   39 1   
    40   27   40 1   
    41   41   42 1   
    42   41   49 1   
    43   42   43 1   
    44   42   45 1   
    45   42   50 1   
    46   43   44 2   
    47   43   53 1   
    48   45   46 1   
    49   45   51 1   
    50   45   52 1   
    51   46   47 1   
    52   46   48 1   
    53   53   54 1   
    54   53   57 1   
    55   54   55 1   
    56   54   58 1   
    57   54   59 1   
    58   55   56 2   
    59   55   60 1   
    60   60   61 1   
    61   60   68 1   
    62   61   62 1   
    63   61   64 1   
    64   61   69 1   
    65   62   63 2   
    66   62   72 1   
    67   64   65 1   
    68   64   70 1   
    69   64   71 1   
    70   65   66 1   
    71   65   67 1   
    72   72   73 1   
    73   72   76 1   
    74   73   74 1   
    75   73   77 1   
    76   73   78 1   
    77   74   75 2   
    78   74   79 1   
    79   79   80 1   
    80   79   86 1   
    81   80   81 1   
    82   80   83 1   
    83   80   87 1   
    84   81   82 2   
    85   81   93 1   
    86   83   84 1   
    87   83   85 1   
    88   83   88 1   
    89   84   90 1   
    90   84   91 1   
    91   84   92 1   
    92   85   89 1   
    93   93   94 1   
    94   93  101 1   
    95   94   95 1   
    96   94   97 1   
    97   94  102 1   
    98   95   96 2   
    99   95  112 1   
   100   97   98 1   
   101   97   99 1   
   102   97  103 1   
   103   98  100 1   
   104   98  104 1   
   105   98  105 1   
   106   99  106 1   
   107   99  107 1   
   108   99  108 1   
   109  100  109 1   
   110  100  110 1   
   111  100  111 1   
   112  112  113 1   
   113  112  119 1   
   114  113  114 1   
   115  113  116 1   
   116  113  120 1   
   117  114  115 2   
   118  114  126 1   
   119  116  117 1   
   120  116  118 1   
   121  116  121 1   
   122  117  123 1   
   123  117  124 1   
   124  117  125 1   
   125  118  122 1   
   126  126  127 1   
   127  126  133 1   
   128  127  128 1   
   129  127  130 1   
   130  127  134 1   
   131  128  129 2   
   132  128  140 1   
   133  130  131 1   
   134  130  132 1   
   135  130  135 1   
   136  131  137 1   
   137  131  138 1   
   138  131  139 1   
   139  132  136 1   
   140  140  141 1   
   141  140  149 1   
   142  141  142 1   
   143  141  144 1   
   144  141  150 1   
   145  142  143 2   
   146  142  162 1   
   147  144  145 1   
   148  144  151 1   
   149  144  152 1   
   150  145  146 1   
   151  145  153 1   
   152  145  154 1   
   153  146  147 1   
   154  146  155 1   
   155  146  156 1   
   156  147  148 1   
   157  147  157 1   
   158  147  158 1   
   159  148  159 1   
   160  148  160 1   
   161  148  161 1   
   162  162  163 1   
   163  162  171 1   
   164  163  164 1   
   165  163  166 1   
   166  163  172 1   
   167  164  165 2   
   168  164  177 1   
   169  166  167 1   
   170  166  173 1   
   171  166  174 1   
   172  167  168 1   
   173  167  175 1   
   174  167  176 1   
   175  168  169 1   
   176  168  170 1   
   177  177  178 1   
   178  177  182 1   
   179  178  179 1   
   180  178  180 1   
   181  178  181 1   
   182  184  185 1   
   183  184  186 1   
   184  187  188 1   
   185  187  189 1   
@<TRIPOS>SUBSTRUCTURE
     1 MOL         1 TEMP              0 ****  ****    0 ROOT
