@<TRIPOS>MOLECULE
MOL
  186   183     1     0     0
SMALL
resp


@<TRIPOS>ATOM
      1 C1          0.4070   -1.7840    5.9810 c3        1 MOL     -0.334108
      2 C2          0.8600   -1.8580    4.5020 c         1 MOL      0.649831
      3 O1          0.2090   -2.4890    3.6650 o         1 MOL     -0.563608
      4 H1          0.3920   -2.7870    6.4060 hc        1 MOL      0.078847
      5 H2          1.1030   -1.1620    6.5430 hc        1 MOL      0.078847
      6 H3         -0.5920   -1.3520    6.0350 hc        1 MOL      0.078847
      7 N1          2.0470   -1.2920    4.2380 n         1 MOL     -0.466550
      8 C3          2.7060   -1.5080    2.9820 c3        1 MOL      0.076767
      9 C4          3.1900   -2.9020    2.8030 c         1 MOL      0.522485
     10 O2          4.0740   -3.3860    3.4380 o         1 MOL     -0.601767
     11 C5          3.7240   -0.4010    2.7040 c3        1 MOL     -0.331981
     12 C6          4.6650   -0.6680    1.4910 c         1 MOL      0.774786
     13 O3          4.1850   -1.1070    0.4090 o         1 MOL     -0.641487
     14 O4          5.8370   -0.3420    1.6120 o         1 MOL     -0.641487
     15 H4          2.4890   -0.8580    5.0460 hn        1 MOL      0.296181
     16 H5          1.8690   -1.4410    2.2880 h1        1 MOL      0.040967
     17 H6          4.4220   -0.3930    3.5360 hc        1 MOL      0.070927
     18 H7          3.3870    0.6340    2.5990 hc        1 MOL      0.070927
     19 N2          2.7630   -3.5800    1.7710 n         1 MOL      0.080324
     20 C7          3.0980   -5.0320    1.5460 c3        1 MOL     -0.556370
     21 C8          3.7730   -5.2020    0.1770 c         1 MOL      0.610938
     22 O5          3.9840   -6.3730   -0.2640 o         1 MOL     -0.591542
     23 C9          1.8720   -5.9580    1.6170 c3        1 MOL      0.590902
     24 C10         0.7780   -5.6300    0.5890 c3        1 MOL     -0.048342
     25 C11         1.3640   -5.9830    2.9970 c3        1 MOL     -0.159728
     26 C12        -0.1430   -6.7740    0.2350 c3        1 MOL     -0.516359
     27 H8          2.0070   -3.1960    1.2240 hn        1 MOL      0.025387
     28 H9          3.8860   -5.3120    2.2510 h1        1 MOL      0.174367
     29 H10         2.2040   -6.9700    1.4010 hc        1 MOL     -0.110838
     30 H11         1.2280   -5.4030   -0.3700 hc        1 MOL      0.113394
     31 H12         0.2110   -4.7720    0.9510 hc        1 MOL      0.113394
     32 H13         0.6500   -6.8100    3.0140 hc        1 MOL     -0.006083
     33 H14         2.1530   -6.1210    3.7280 hc        1 MOL     -0.006083
     34 H15         0.8550   -5.0240    3.1160 hc        1 MOL     -0.006083
     35 H16        -0.6180   -6.5610   -0.7220 hc        1 MOL      0.121115
     36 H17         0.4000   -7.7050    0.1080 hc        1 MOL      0.121115
     37 H18        -0.9520   -6.7560    0.9660 hc        1 MOL      0.121115
     38 N3          4.0500   -4.0890   -0.5590 n         1 MOL     -0.569764
     39 C13         4.8220   -4.0860   -1.7960 c3        1 MOL      0.022337
     40 C14         5.9120   -3.0140   -1.8870 c         1 MOL      0.509050
     41 O6          6.4170   -2.7840   -2.9790 o         1 MOL     -0.524123
     42 C15         3.8640   -4.0780   -2.9990 c3        1 MOL     -0.215852
     43 C16         2.9820   -2.8100   -3.0630 c         1 MOL      0.817773
     44 O7          2.2670   -2.7170   -4.0910 o         1 MOL     -0.732055
     45 O8          3.0480   -1.9710   -2.2060 o         1 MOL     -0.732055
     46 H19         3.5620   -3.2700   -0.2240 hn        1 MOL      0.380852
     47 H20         5.2880   -5.0680   -1.7900 h1        1 MOL      0.085784
     48 H21         3.1300   -4.8840   -2.9410 hc        1 MOL      0.050676
     49 H22         4.4750   -4.1740   -3.8980 hc        1 MOL      0.050676
     50 N4          6.3560   -2.5030   -0.7610 n         1 MOL     -0.264921
     51 C17         7.6570   -2.0060   -0.4050 c3        1 MOL     -0.106636
     52 C18         7.9810   -0.7090   -1.1000 c         1 MOL      0.501722
     53 O9          9.1180   -0.4480   -1.5770 o         1 MOL     -0.609801
     54 H23         5.6340   -2.3830   -0.0640 hn        1 MOL      0.184305
     55 H24         8.4150   -2.7840   -0.5660 h1        1 MOL      0.077898
     56 H25         7.6800   -1.8620    0.6740 h1        1 MOL      0.077898
     57 N5          7.0550    0.2590   -1.0710 n         1 MOL     -0.224010
     58 C19         7.1650    1.5870   -1.7520 c3        1 MOL      0.040961
     59 C20         7.1750    2.8040   -0.7960 c         1 MOL      0.397918
     60 O10         7.4850    3.9100   -1.1930 o         1 MOL     -0.529415
     61 C21         6.0570    1.7920   -2.7980 c3        1 MOL     -0.204143
     62 C22         4.6840    1.5250   -2.2030 c         1 MOL      0.805761
     63 O11         4.4830    1.5900   -1.0110 o         1 MOL     -0.772126
     64 O12         3.7570    1.1100   -2.9430 o         1 MOL     -0.772126
     65 H26         6.2590    0.0500   -0.4760 hn        1 MOL      0.117289
     66 H27         8.0930    1.6670   -2.3140 h1        1 MOL      0.102460
     67 H28         6.2800    1.1170   -3.6320 hc        1 MOL      0.057007
     68 H29         6.0400    2.7470   -3.3290 hc        1 MOL      0.057007
     69 N6          6.8760    2.5350    0.5300 n         1 MOL     -0.286688
     70 C23         6.8530    3.4980    1.5980 c3        1 MOL     -0.040153
     71 C24         5.5520    4.2210    1.7020 c         1 MOL      0.478927
     72 O13         5.3400    5.1480    2.4990 o         1 MOL     -0.601633
     73 H30         6.5140    1.6170    0.7190 hn        1 MOL      0.204406
     74 H31         7.6820    4.2010    1.5050 h1        1 MOL      0.072851
     75 H32         7.0490    3.0120    2.5560 h1        1 MOL      0.072851
     76 N7          4.5350    3.8330    0.9040 n         1 MOL     -0.286986
     77 C25         3.1510    4.4250    0.8850 c3        1 MOL      0.120245
     78 C26         2.0280    3.3730    0.9610 c         1 MOL      0.568696
     79 O14         2.2410    2.1520    0.7190 o         1 MOL     -0.644628
     80 C27         3.0170    5.2210   -0.4320 c3        1 MOL      0.037779
     81 C28         3.8470    6.5050   -0.4160 c3        1 MOL     -0.187375
     82 C29         3.3990    7.5090   -1.4550 c         1 MOL      0.641011
     83 N8          3.4860    7.1850   -2.7190 n         1 MOL     -0.794039
     84 O15         2.7790    8.4840   -1.1050 o         1 MOL     -0.579741
     85 H33         4.6810    3.0600    0.2660 hn        1 MOL      0.269054
     86 H34         3.0030    4.9960    1.7970 h1        1 MOL      0.042680
     87 H35         1.9910    5.5940   -0.5300 hc        1 MOL      0.021152
     88 H36         3.2670    4.5690   -1.2650 hc        1 MOL      0.021152
     89 H37         4.8870    6.2680   -0.6750 hc        1 MOL      0.052489
     90 H38         3.8330    6.9870    0.5590 hc        1 MOL      0.052489
     91 H39         3.7970    6.2760   -3.0230 hn        1 MOL      0.359020
     92 H40         3.1570    7.8490   -3.4160 hn        1 MOL      0.359020
     93 N9          0.8270    3.7720    1.3650 n         1 MOL     -0.468998
     94 C30        -0.3250    2.9220    1.6550 c3        1 MOL      0.089261
     95 C31        -1.4850    3.2610    0.7600 c         1 MOL      0.240221
     96 O16        -1.9650    4.4030    0.7510 o         1 MOL     -0.537008
     97 C32        -0.6740    3.0400    3.1520 c3        1 MOL      0.221878
     98 C33        -2.1130    2.6150    3.4880 c3        1 MOL     -0.301661
     99 C34         0.4100    2.3080    4.0240 c3        1 MOL     -0.301661
    100 H41         0.7090    4.7540    1.5680 hn        1 MOL      0.280986
    101 H42        -0.0360    1.8830    1.4430 h1        1 MOL      0.068825
    102 H43        -0.6060    4.0940    3.4220 hc        1 MOL     -0.009847
    103 H44        -2.2420    1.5850    3.1500 hc        1 MOL      0.066183
    104 H45        -2.3200    2.6450    4.5600 hc        1 MOL      0.066183
    105 H46        -2.8690    3.2230    2.9750 hc        1 MOL      0.066183
    106 H47        -0.0420    2.2700    5.0090 hc        1 MOL      0.066183
    107 H48         0.5320    1.2700    3.7170 hc        1 MOL      0.066183
    108 H49         1.4390    2.6780    4.0030 hc        1 MOL      0.066183
    109 N10        -1.9320    2.3290   -0.0430 n         1 MOL     -0.091798
    110 C35        -3.0690    2.5670   -0.9480 c3        1 MOL      0.167022
    111 C36        -4.4060    2.0590   -0.4340 c         1 MOL      0.408253
    112 O17        -4.4530    1.5900    0.7390 o         1 MOL     -0.417678
    113 C37        -2.6720    2.0840   -2.4080 c3        1 MOL     -0.342677
    114 C38        -2.9820    0.5210   -2.6370 c         1 MOL      0.551068
    115 N11        -2.0580   -0.3520   -2.3360 n         1 MOL     -0.650694
    116 O18        -3.9340    0.0960   -3.2980 o         1 MOL     -0.553319
    117 H50        -1.4300    1.4600   -0.1990 hn        1 MOL      0.373299
    118 H51        -3.1500    3.6390   -1.1170 h1        1 MOL      0.041013
    119 H52        -1.6250    2.3650   -2.5090 hc        1 MOL      0.094758
    120 H53        -3.2190    2.6760   -3.1390 hc        1 MOL      0.094758
    121 H54        -1.3380   -0.1990   -1.6520 hn        1 MOL      0.374121
    122 H55        -2.1040   -1.2680   -2.7760 hn        1 MOL      0.374121
    123 N12        -5.4880    2.2470   -1.1520 n         1 MOL     -0.581163
    124 C39        -6.8630    1.9210   -0.6740 c3        1 MOL      0.398548
    125 C40        -7.0540    0.4010   -0.4140 c         1 MOL      0.554731
    126 O19        -7.4420    0.0550    0.6990 o         1 MOL     -0.522682
    127 C41        -7.9160    2.5560   -1.5320 c3        1 MOL     -0.268589
    128 C42        -9.3660    2.3650   -1.0010 ca        1 MOL      0.172090
    129 C43        -9.8420    3.0210    0.1710 ca        1 MOL     -0.316677
    130 C44       -10.1590    1.4340   -1.6200 ca        1 MOL     -0.316677
    131 C45       -11.0900    2.7030    0.7570 ca        1 MOL     -0.093396
    132 C46       -11.4410    1.2120   -1.1250 ca        1 MOL     -0.093396
    133 C47       -11.9820    1.8610    0.0180 ca        1 MOL      0.152767
    134 O20       -13.1970    1.6330    0.5380 oh        1 MOL     -0.434219
    135 H56        -5.4240    2.7230   -2.0360 hn        1 MOL      0.294729
    136 H57        -6.8890    2.3480    0.3220 h1        1 MOL      0.009496
    137 H58        -7.7750    2.1310   -2.5220 hc        1 MOL      0.073132
    138 H59        -7.7910    3.6370   -1.5660 hc        1 MOL      0.073132
    139 H60        -9.1860    3.7140    0.6840 ha        1 MOL      0.164810
    140 H61        -9.7690    0.8540   -2.4440 ha        1 MOL      0.164810
    141 H62       -11.3440    3.0990    1.7300 ha        1 MOL      0.110311
    142 H63       -12.1100    0.4960   -1.5830 ha        1 MOL      0.110311
    143 H64       -13.6820    1.0400   -0.0510 ho        1 MOL      0.345437
    144 N13        -6.3760   -0.4550   -1.1990 n         1 MOL     -0.462039
    145 C48        -6.3320   -1.8890   -1.0490 c3        1 MOL      0.011110
    146 C49        -5.5030   -2.3570    0.2010 c         1 MOL      0.293805
    147 O21        -5.9120   -3.3120    0.8520 o         1 MOL     -0.506871
    148 C50        -5.6870   -2.3900   -2.3760 c3        1 MOL      0.184435
    149 C51        -5.7250   -3.9250   -2.3990 c3        1 MOL     -0.537150
    150 C52        -5.3040   -4.4630   -3.7570 c         1 MOL      0.831438
    151 O22        -4.1730   -4.7570   -4.0890 o         1 MOL     -0.757074
    152 O23        -6.1980   -4.4680   -4.6760 o         1 MOL     -0.757074
    153 H65        -5.9710   -0.1160   -2.0660 hn        1 MOL      0.216655
    154 H66        -7.3610   -2.2320   -1.0180 h1        1 MOL      0.097327
    155 H67        -4.6820   -1.9790   -2.5030 hc        1 MOL      0.013729
    156 H68        -6.2610   -2.0300   -3.2360 hc        1 MOL      0.013729
    157 H69        -6.6830   -4.3310   -2.0920 hc        1 MOL      0.101451
    158 H70        -4.9150   -4.0900   -1.6930 hc        1 MOL      0.101451
    159 N14        -4.4980   -1.5950    0.5450 n         1 MOL      0.048435
    160 C53        -3.7180   -1.7670    1.7550 c3        1 MOL     -0.050227
    161 C54        -4.4200   -1.2180    3.0170 c         1 MOL      0.410376
    162 O24        -4.1490   -1.6270    4.1320 o         1 MOL     -0.570715
    163 C55        -2.3720   -1.1250    1.5690 c3        1 MOL      0.042646
    164 C56        -1.4870   -2.0360    0.7540 c3        1 MOL     -0.314357
    165 C57        -0.2260   -1.2910    0.2280 c         1 MOL      0.748040
    166 O25         0.8700   -1.9040    0.1880 o         1 MOL     -0.761480
    167 O26        -0.2670   -0.1670   -0.3270 o         1 MOL     -0.761480
    168 H71        -4.3360   -0.7800   -0.0350 hn        1 MOL     -0.026728
    169 H72        -3.6040   -2.8330    1.9490 h1        1 MOL      0.093537
    170 H73        -1.9620   -0.9310    2.5690 hc        1 MOL      0.035450
    171 H74        -2.5200   -0.2150    0.9840 hc        1 MOL      0.035450
    172 H75        -2.0730   -2.4640   -0.0670 hc        1 MOL      0.094370
    173 H76        -1.2430   -2.8880    1.3940 hc        1 MOL      0.094370
    174 N15        -5.3380   -0.3550    2.7600 n         1 MOL     -0.009919
    175 C58        -6.2140    0.3570    3.7300 c3        1 MOL     -0.264162
    176 H77        -7.0960    0.7360    3.2130 h1        1 MOL      0.092630
    177 H78        -6.5220   -0.3330    4.5160 h1        1 MOL      0.092630
    178 H79        -5.6660    1.1900    4.1720 h1        1 MOL      0.092630
    179 H80        -5.5310   -0.0570    1.8140 hn        1 MOL      0.069680
    180 Ca1         2.2500    0.1130   -0.9750 Ca        1 MOL      1.767023
    181 O27         0.8240    2.1610   -1.9140 oh        1 MOL     -0.887939
    182 H81         0.1360    1.6490   -2.3520 ho        1 MOL      0.402984
    183 H82         1.2340    2.6630   -2.6160 ho        1 MOL      0.402984
    184 O28         1.0000   -0.3570   -3.3310 oh        1 MOL     -0.887939
    185 H83         0.3550   -0.3490   -4.0480 ho        1 MOL      0.402984
    186 H84         1.6690   -0.9640   -3.6230 ho        1 MOL      0.402984
@<TRIPOS>BOND
     1    1    2 1   
     2    1    4 1   
     3    1    5 1   
     4    1    6 1   
     5    2    3 2   
     6    2    7 1   
     7    7    8 1   
     8    7   15 1   
     9    8    9 1   
    10    8   11 1   
    11    8   16 1   
    12    9   10 2   
    13    9   19 1   
    14   11   12 1   
    15   11   17 1   
    16   11   18 1   
    17   12   13 1   
    18   12   14 1   
    19   19   20 1   
    20   19   27 1   
    21   20   21 1   
    22   20   23 1   
    23   20   28 1   
    24   21   22 2   
    25   21   38 1   
    26   23   24 1   
    27   23   25 1   
    28   23   29 1   
    29   24   26 1   
    30   24   30 1   
    31   24   31 1   
    32   25   32 1   
    33   25   33 1   
    34   25   34 1   
    35   26   35 1   
    36   26   36 1   
    37   26   37 1   
    38   38   39 1   
    39   38   46 1   
    40   39   40 1   
    41   39   42 1   
    42   39   47 1   
    43   40   41 2   
    44   40   50 1   
    45   42   43 1   
    46   42   48 1   
    47   42   49 1   
    48   43   44 1   
    49   43   45 1   
    50   50   51 1   
    51   50   54 1   
    52   51   52 1   
    53   51   55 1   
    54   51   56 1   
    55   52   53 2   
    56   52   57 1   
    57   57   58 1   
    58   57   65 1   
    59   58   59 1   
    60   58   61 1   
    61   58   66 1   
    62   59   60 2   
    63   59   69 1   
    64   61   62 1   
    65   61   67 1   
    66   61   68 1   
    67   62   63 1   
    68   62   64 1   
    69   69   70 1   
    70   69   73 1   
    71   70   71 1   
    72   70   74 1   
    73   70   75 1   
    74   71   72 2   
    75   71   76 1   
    76   76   77 1   
    77   76   85 1   
    78   77   78 1   
    79   77   80 1   
    80   77   86 1   
    81   78   79 2   
    82   78   93 1   
    83   80   81 1   
    84   80   87 1   
    85   80   88 1   
    86   81   82 1   
    87   81   89 1   
    88   81   90 1   
    89   82   83 1   
    90   82   84 2   
    91   83   91 1   
    92   83   92 1   
    93   93   94 1   
    94   93  100 1   
    95   94   95 1   
    96   94   97 1   
    97   94  101 1   
    98   95   96 2   
    99   95  109 1   
   100   97   98 1   
   101   97   99 1   
   102   97  102 1   
   103   98  103 1   
   104   98  104 1   
   105   98  105 1   
   106   99  106 1   
   107   99  107 1   
   108   99  108 1   
   109  109  110 1   
   110  109  117 1   
   111  110  111 1   
   112  110  113 1   
   113  110  118 1   
   114  111  112 2   
   115  111  123 1   
   116  113  114 1   
   117  113  119 1   
   118  113  120 1   
   119  114  115 1   
   120  114  116 2   
   121  115  121 1   
   122  115  122 1   
   123  123  124 1   
   124  123  135 1   
   125  124  125 1   
   126  124  127 1   
   127  124  136 1   
   128  125  126 2   
   129  125  144 1   
   130  127  128 1   
   131  127  137 1   
   132  127  138 1   
   133  128  129 ar  
   134  128  130 ar  
   135  129  131 ar  
   136  129  139 1   
   137  130  132 ar  
   138  130  140 1   
   139  131  133 ar  
   140  131  141 1   
   141  132  133 ar  
   142  132  142 1   
   143  133  134 1   
   144  134  143 1   
   145  144  145 1   
   146  144  153 1   
   147  145  146 1   
   148  145  148 1   
   149  145  154 1   
   150  146  147 2   
   151  146  159 1   
   152  148  149 1   
   153  148  155 1   
   154  148  156 1   
   155  149  150 1   
   156  149  157 1   
   157  149  158 1   
   158  150  151 1   
   159  150  152 1   
   160  159  160 1   
   161  159  168 1   
   162  160  161 1   
   163  160  163 1   
   164  160  169 1   
   165  161  162 2   
   166  161  174 1   
   167  163  164 1   
   168  163  170 1   
   169  163  171 1   
   170  164  165 1   
   171  164  172 1   
   172  164  173 1   
   173  165  166 1   
   174  165  167 1   
   175  174  175 1   
   176  174  179 1   
   177  175  176 1   
   178  175  177 1   
   179  175  178 1   
   180  181  182 1   
   181  181  183 1   
   182  184  185 1   
   183  184  186 1   
@<TRIPOS>SUBSTRUCTURE
     1 MOL         1 TEMP              0 ****  ****    0 ROOT
