@<TRIPOS>MOLECULE
MOL
  179   176     1     0     0
SMALL
resp


@<TRIPOS>ATOM
      1 C1         -1.4560   -3.5110    6.2140 c3        1 MOL     -0.282982
      2 C2         -1.2640   -3.0810    4.7480 c         1 MOL      0.704614
      3 O1         -2.1360   -3.2030    3.9170 o         1 MOL     -0.604750
      4 H1         -1.1770   -2.6880    6.8730 hc        1 MOL      0.068884
      5 H2         -2.5010   -3.7730    6.3830 hc        1 MOL      0.068884
      6 H3         -0.8250   -4.3750    6.4260 hc        1 MOL      0.068884
      7 N1         -0.0260   -2.9380    4.4050 n         1 MOL     -0.473778
      8 C3          0.4240   -2.5930    3.0710 c3        1 MOL     -0.327513
      9 C4          0.2920   -3.7700    2.0990 c         1 MOL      0.893908
     10 O2          0.7500   -4.8590    2.3130 o         1 MOL     -0.603562
     11 C5          1.9260   -2.1090    3.2260 c3        1 MOL     -0.038559
     12 C6          2.5740   -1.6750    1.9160 c         1 MOL      0.769439
     13 O3          3.7280   -1.2090    2.0220 o         1 MOL     -0.767135
     14 O4          1.9040   -1.6810    0.8560 o         1 MOL     -0.767135
     15 H4          0.7120   -2.9140    5.1070 hn        1 MOL      0.291178
     16 H5         -0.1880   -1.7620    2.7190 h1        1 MOL      0.153803
     17 H6          2.5290   -2.8990    3.6800 hc        1 MOL      0.044079
     18 H7          2.0730   -1.2210    3.8330 hc        1 MOL      0.044079
     19 N2         -0.4530   -3.6010    0.9990 n         1 MOL     -0.277279
     20 C7         -1.0030   -4.7760    0.2890 c3        1 MOL     -0.133705
     21 C8         -0.0340   -5.6560   -0.5800 c         1 MOL      0.491291
     22 O5         -0.2970   -6.8240   -0.9510 o         1 MOL     -0.565070
     23 C9         -2.2100   -4.2870   -0.5390 c3        1 MOL      0.096198
     24 C10        -3.3600   -5.3450   -0.8640 c3        1 MOL     -0.355726
     25 C11        -4.7310   -4.6450   -1.2310 c3        1 MOL      0.075692
     26 C12        -5.8360   -5.6400   -1.6560 c3        1 MOL      0.036640
     27 N3         -7.1560   -5.0690   -2.0500 n4        1 MOL     -0.390041
     28 H8         -0.9090   -2.7110    0.8530 hn        1 MOL      0.144467
     29 H9         -1.3370   -5.5090    1.0230 h1        1 MOL      0.105754
     30 H10        -1.9190   -3.7180   -1.4210 hc        1 MOL      0.063474
     31 H11        -2.7040   -3.4890    0.0160 hc        1 MOL      0.063474
     32 H12        -3.4230   -5.9670    0.0210 hc        1 MOL      0.107968
     33 H13        -3.0080   -5.9960   -1.6510 hc        1 MOL      0.107968
     34 H14        -4.5560   -3.9010   -2.0110 hc        1 MOL      0.043028
     35 H15        -5.0870   -4.0240   -0.4040 hc        1 MOL      0.043028
     36 H16        -6.0230   -6.2820   -0.7940 hx        1 MOL      0.079451
     37 H17        -5.4860   -6.2550   -2.4890 hx        1 MOL      0.079451
     38 H18        -7.1230   -4.2890   -2.6910 hn        1 MOL      0.337259
     39 H19        -7.7610   -5.7770   -2.4300 hn        1 MOL      0.337259
     40 H20        -7.5660   -4.7340   -1.1900 hn        1 MOL      0.337259
     41 N4          1.0900   -5.0380   -0.8930 n         1 MOL     -0.247398
     42 C13         2.2750   -5.5160   -1.7080 c3        1 MOL      0.060075
     43 C14         3.5850   -5.3100   -0.9830 c         1 MOL      0.422326
     44 O6          4.6170   -5.7010   -1.4760 o         1 MOL     -0.511514
     45 C15         2.2760   -4.8940   -3.1200 c3        1 MOL     -0.103683
     46 C16         2.1190   -3.3160   -3.2720 c         1 MOL      0.707448
     47 O7          1.9750   -2.8090   -4.3700 o         1 MOL     -0.686050
     48 O8          2.1570   -2.6040   -2.2420 o         1 MOL     -0.686050
     49 H21         1.0800   -4.1490   -0.4120 hn        1 MOL      0.071700
     50 H22         2.2010   -6.5780   -1.9250 h1        1 MOL      0.095221
     51 H23         1.3860   -5.2600   -3.6170 hc        1 MOL      0.034087
     52 H24         3.1430   -5.2740   -3.6500 hc        1 MOL      0.034087
     53 N5          3.5650   -4.6290    0.1730 n         1 MOL     -0.190190
     54 C17         4.7930   -4.3240    0.9390 c3        1 MOL     -0.193393
     55 C18         5.7700   -3.2570    0.3180 c         1 MOL      0.484937
     56 O9          6.9590   -3.1360    0.6730 o         1 MOL     -0.548026
     57 H25         2.6850   -4.3640    0.5980 hn        1 MOL      0.141957
     58 H26         5.4510   -5.1900    0.9870 h1        1 MOL      0.122480
     59 H27         4.5380   -4.1130    1.9720 h1        1 MOL      0.122480
     60 N6          5.2830   -2.4200   -0.6310 n         1 MOL     -0.180982
     61 C19         6.0620   -1.4120   -1.2630 c3        1 MOL      0.121659
     62 C20         6.4950   -0.2400   -0.3430 c         1 MOL      0.319701
     63 O10         7.3130    0.6470   -0.7760 o         1 MOL     -0.515907
     64 C21         5.3340   -0.9610   -2.5720 c3        1 MOL     -0.443566
     65 C22         4.6370    0.3800   -2.4010 c         1 MOL      0.677271
     66 N7          4.8080    1.2850   -3.3200 n         1 MOL     -0.623484
     67 O11         3.8470    0.6230   -1.5330 o         1 MOL     -0.684104
     68 H28         4.2960   -2.4870   -0.8460 hn        1 MOL      0.112296
     69 H29         7.0330   -1.8520   -1.4900 h1        1 MOL      0.096350
     70 H30         4.5780   -1.7260   -2.7470 hc        1 MOL      0.148464
     71 H31         6.0970   -0.8500   -3.3420 hc        1 MOL      0.148464
     72 H32         5.3230    1.0260   -4.1490 hn        1 MOL      0.314908
     73 H33         4.3140    2.1570   -3.3610 hn        1 MOL      0.314908
     74 N8          5.8940   -0.0560    0.8540 n         1 MOL     -0.206128
     75 C23         6.2460    1.0320    1.7830 c3        1 MOL     -0.124280
     76 C24         5.3360    2.2450    1.7490 c         1 MOL      0.414920
     77 O12         5.6290    3.1420    2.5010 o         1 MOL     -0.564556
     78 H34         5.1910   -0.6850    1.2190 hn        1 MOL      0.284707
     79 H35         7.2820    1.3530    1.6100 h1        1 MOL      0.105890
     80 H36         6.3190    0.6660    2.8030 h1        1 MOL      0.105890
     81 N9          4.3540    2.2900    0.8850 n         1 MOL     -0.039849
     82 C25         3.2890    3.2830    0.9620 c3        1 MOL      0.424363
     83 C26         1.9090    2.5360    0.9700 c         1 MOL      0.087393
     84 O13         1.8170    1.4260    0.4430 o         1 MOL     -0.474952
     85 C27         3.4520    4.2310   -0.2350 c3        1 MOL     -0.112032
     86 C28         4.8470    4.9530   -0.2840 ca        1 MOL      0.155997
     87 C29         5.9230    4.5100   -1.0960 ca        1 MOL     -0.355557
     88 C30         5.0560    6.1940    0.4230 ca        1 MOL     -0.355557
     89 C31         7.1570    5.1960   -1.2190 ca        1 MOL     -0.010211
     90 C32         6.2470    6.9540    0.2270 ca        1 MOL     -0.010211
     91 C33         7.2760    6.4840   -0.6030 ca        1 MOL      0.102002
     92 O14         8.4560    7.2020   -0.7800 oh        1 MOL     -0.434617
     93 H37         4.3290    1.5300    0.2080 hn        1 MOL      0.154589
     94 H38         3.2920    3.8380    1.8950 h1        1 MOL     -0.041113
     95 H39         2.7220    5.0470   -0.1270 hc        1 MOL      0.018758
     96 H40         3.2810    3.7600   -1.1980 hc        1 MOL      0.018758
     97 H41         5.7840    3.5700   -1.6090 ha        1 MOL      0.161224
     98 H42         4.2750    6.5950    1.0660 ha        1 MOL      0.161224
     99 H43         7.9960    4.8550   -1.8210 ha        1 MOL      0.101012
    100 H44         6.2850    7.9230    0.6940 ha        1 MOL      0.101012
    101 H45         8.3890    8.0800   -0.4120 ho        1 MOL      0.341068
    102 N10         0.8310    3.1350    1.5480 n         1 MOL     -0.300654
    103 C34        -0.5400    2.6290    1.5390 c3        1 MOL      0.054081
    104 C35        -1.4810    3.6370    0.7520 c         1 MOL      0.356534
    105 O15        -1.6590    4.7770    1.2220 o         1 MOL     -0.518499
    106 C36        -1.0540    2.4460    2.9980 c3        1 MOL      0.081448
    107 C37        -0.1760    1.5510    3.9280 c3        1 MOL      0.025807
    108 C38        -2.4470    1.9280    2.9110 c3        1 MOL      0.000583
    109 C39        -0.5210    1.6870    5.3830 c3        1 MOL     -0.286164
    110 H46         1.0430    4.0100    2.0100 hn        1 MOL      0.277359
    111 H47        -0.6550    1.6700    1.0370 h1        1 MOL      0.010986
    112 H48        -1.1950    3.4560    3.3840 hc        1 MOL     -0.013857
    113 H49         0.8620    1.8810    3.8830 hc        1 MOL      0.046251
    114 H50        -0.2280    0.5110    3.5910 hc        1 MOL      0.046251
    115 H51        -2.7990    1.8240    3.9340 hc        1 MOL     -0.000014
    116 H52        -3.1950    2.5260    2.3790 hc        1 MOL     -0.000014
    117 H53        -2.3650    0.8990    2.5790 hc        1 MOL     -0.000014
    118 H54         0.2840    1.1610    5.8840 hc        1 MOL      0.069973
    119 H55        -0.3010    2.6880    5.7610 hc        1 MOL      0.069973
    120 H56        -1.4880    1.3230    5.7390 hc        1 MOL      0.069973
    121 N11        -1.9880    3.2570   -0.3660 n         1 MOL     -0.275984
    122 C40        -3.0080    4.0560   -1.1220 c3        1 MOL      0.002695
    123 C41        -4.4470    3.9000   -0.5820 c         1 MOL      0.280021
    124 O16        -4.7080    2.9420    0.1950 o         1 MOL     -0.225979
    125 C42        -2.9810    3.7120   -2.5570 c3        1 MOL     -0.012598
    126 O17        -3.3730    2.3730   -2.7930 oh        1 MOL     -0.493613
    127 H57        -1.8110    2.3500   -0.7500 hn        1 MOL      0.446199
    128 H58        -2.8630    5.1340   -0.9900 h1        1 MOL      0.083211
    129 H59        -1.9720    3.9480   -2.8790 h1        1 MOL      0.047977
    130 H60        -3.6390    4.4450   -3.0360 h1        1 MOL      0.047977
    131 H61        -4.0070    2.4630   -3.5110 ho        1 MOL      0.381368
    132 N12        -5.3150    4.8290   -0.9680 n         1 MOL     -0.308957
    133 C43        -6.6920    4.9080   -0.5910 c3        1 MOL      0.114116
    134 C44        -7.4280    3.5210   -0.7710 c         1 MOL      0.395455
    135 O18        -8.0200    3.0380    0.1750 o         1 MOL     -0.488065
    136 C45        -7.2720    6.0720   -1.2670 c3        1 MOL     -0.252751
    137 H62        -4.9370    5.5050   -1.6140 hn        1 MOL      0.263055
    138 H63        -6.7820    5.2250    0.4460 h1        1 MOL      0.094229
    139 H64        -7.2890    5.8790   -2.3320 hc        1 MOL      0.077976
    140 H65        -8.3070    6.3130   -0.9960 hc        1 MOL      0.077976
    141 H66        -6.6840    6.9300   -0.9400 hc        1 MOL      0.077976
    142 N13        -7.2270    2.8140   -1.9020 n         1 MOL     -0.282126
    143 C46        -7.7390    1.4260   -2.0570 c3        1 MOL      0.029391
    144 C47        -7.3050    0.3700   -1.0090 c         1 MOL      0.384885
    145 O19        -7.9610   -0.6200   -0.7500 o         1 MOL     -0.528347
    146 C48        -7.3500    0.8990   -3.4060 c3        1 MOL     -0.389876
    147 H67        -6.7990    3.2750   -2.6980 hn        1 MOL      0.245772
    148 H68        -8.8270    1.4820   -2.1520 h1        1 MOL      0.108122
    149 H69        -6.2970    0.6740   -3.5050 hc        1 MOL      0.109549
    150 H70        -7.8030   -0.0860   -3.5790 hc        1 MOL      0.109549
    151 H71        -7.6500    1.6400   -4.1490 hc        1 MOL      0.109549
    152 N14        -6.0370    0.5230   -0.5060 n         1 MOL      0.010151
    153 C49        -5.2980   -0.3350    0.3540 c3        1 MOL     -0.019684
    154 C50        -5.7650   -0.0590    1.7940 c         1 MOL      0.412073
    155 O20        -6.1730   -0.9900    2.4800 o         1 MOL     -0.531634
    156 C51        -3.7810   -0.1600    0.0880 c3        1 MOL     -0.024709
    157 C52        -3.2650   -0.8070   -1.2130 c3        1 MOL     -0.077139
    158 C53        -1.7220   -0.8920   -1.3410 c         1 MOL      0.782966
    159 O21        -1.0250   -1.1300   -0.3710 o         1 MOL     -0.787579
    160 O22        -1.1350   -0.5910   -2.3680 o         1 MOL     -0.787579
    161 H72        -5.5890    1.3760   -0.8100 hn        1 MOL      0.030109
    162 H73        -5.5860   -1.3490    0.0790 h1        1 MOL      0.022952
    163 H74        -3.2410   -0.6150    0.9150 hc        1 MOL      0.037290
    164 H75        -3.5130    0.8990    0.0470 hc        1 MOL      0.037290
    165 H76        -3.6420   -0.1880   -2.0270 hc        1 MOL     -0.039085
    166 H77        -3.7230   -1.7990   -1.3200 hc        1 MOL     -0.039085
    167 N15        -5.9480    1.1980    2.1820 n         1 MOL     -0.032587
    168 C54        -6.4390    1.7350    3.5000 c3        1 MOL     -0.310191
    169 H78        -6.1590    2.7840    3.5910 h1        1 MOL      0.123132
    170 H79        -7.5230    1.6430    3.5500 h1        1 MOL      0.123132
    171 H80        -5.9870    1.1670    4.3150 h1        1 MOL      0.123132
    172 H81        -5.4900    1.8800    1.5870 hn        1 MOL      0.014382
    173 Ca1         1.2820   -0.4260   -1.2750 Ca        1 MOL      1.759191
    174 O23         1.9290   -0.1440   -3.8470 oh        1 MOL     -0.806398
    175 H82         2.0830    0.4280   -4.6110 ho        1 MOL      0.387781
    176 H83         2.0280   -1.0250   -4.1970 ho        1 MOL      0.387781
    177 O24         0.4510    2.1920   -1.9510 oh        1 MOL     -0.806398
    178 H84         0.8640    3.0320   -1.7680 ho        1 MOL      0.387781
    179 H85         0.2960    2.1890   -2.8940 ho        1 MOL      0.387781
@<TRIPOS>BOND
     1    1    2 1   
     2    1    4 1   
     3    1    5 1   
     4    1    6 1   
     5    2    3 2   
     6    2    7 1   
     7    7    8 1   
     8    7   15 1   
     9    8    9 1   
    10    8   11 1   
    11    8   16 1   
    12    9   10 2   
    13    9   19 1   
    14   11   12 1   
    15   11   17 1   
    16   11   18 1   
    17   12   13 1   
    18   12   14 1   
    19   19   20 1   
    20   19   28 1   
    21   20   21 1   
    22   20   23 1   
    23   20   29 1   
    24   21   22 2   
    25   21   41 1   
    26   23   24 1   
    27   23   30 1   
    28   23   31 1   
    29   24   25 1   
    30   24   32 1   
    31   24   33 1   
    32   25   26 1   
    33   25   34 1   
    34   25   35 1   
    35   26   27 1   
    36   26   36 1   
    37   26   37 1   
    38   27   38 1   
    39   27   39 1   
    40   27   40 1   
    41   41   42 1   
    42   41   49 1   
    43   42   43 1   
    44   42   45 1   
    45   42   50 1   
    46   43   44 2   
    47   43   53 1   
    48   45   46 1   
    49   45   51 1   
    50   45   52 1   
    51   46   47 1   
    52   46   48 1   
    53   53   54 1   
    54   53   57 1   
    55   54   55 1   
    56   54   58 1   
    57   54   59 1   
    58   55   56 2   
    59   55   60 1   
    60   60   61 1   
    61   60   68 1   
    62   61   62 1   
    63   61   64 1   
    64   61   69 1   
    65   62   63 2   
    66   62   74 1   
    67   64   65 1   
    68   64   70 1   
    69   64   71 1   
    70   65   66 1   
    71   65   67 2   
    72   66   72 1   
    73   66   73 1   
    74   74   75 1   
    75   74   78 1   
    76   75   76 1   
    77   75   79 1   
    78   75   80 1   
    79   76   77 2   
    80   76   81 1   
    81   81   82 1   
    82   81   93 1   
    83   82   83 1   
    84   82   85 1   
    85   82   94 1   
    86   83   84 2   
    87   83  102 1   
    88   85   86 1   
    89   85   95 1   
    90   85   96 1   
    91   86   87 ar  
    92   86   88 ar  
    93   87   89 ar  
    94   87   97 1   
    95   88   90 ar  
    96   88   98 1   
    97   89   91 ar  
    98   89   99 1   
    99   90   91 ar  
   100   90  100 1   
   101   91   92 1   
   102   92  101 1   
   103  102  103 1   
   104  102  110 1   
   105  103  104 1   
   106  103  106 1   
   107  103  111 1   
   108  104  105 2   
   109  104  121 1   
   110  106  107 1   
   111  106  108 1   
   112  106  112 1   
   113  107  109 1   
   114  107  113 1   
   115  107  114 1   
   116  108  115 1   
   117  108  116 1   
   118  108  117 1   
   119  109  118 1   
   120  109  119 1   
   121  109  120 1   
   122  121  122 1   
   123  121  127 1   
   124  122  123 1   
   125  122  125 1   
   126  122  128 1   
   127  123  124 2   
   128  123  132 1   
   129  125  126 1   
   130  125  129 1   
   131  125  130 1   
   132  126  131 1   
   133  132  133 1   
   134  132  137 1   
   135  133  134 1   
   136  133  136 1   
   137  133  138 1   
   138  134  135 2   
   139  134  142 1   
   140  136  139 1   
   141  136  140 1   
   142  136  141 1   
   143  142  143 1   
   144  142  147 1   
   145  143  144 1   
   146  143  146 1   
   147  143  148 1   
   148  144  145 2   
   149  144  152 1   
   150  146  149 1   
   151  146  150 1   
   152  146  151 1   
   153  152  153 1   
   154  152  161 1   
   155  153  154 1   
   156  153  156 1   
   157  153  162 1   
   158  154  155 2   
   159  154  167 1   
   160  156  157 1   
   161  156  163 1   
   162  156  164 1   
   163  157  158 1   
   164  157  165 1   
   165  157  166 1   
   166  158  159 1   
   167  158  160 1   
   168  167  168 1   
   169  167  172 1   
   170  168  169 1   
   171  168  170 1   
   172  168  171 1   
   173  174  175 1   
   174  174  176 1   
   175  177  178 1   
   176  177  179 1   
@<TRIPOS>SUBSTRUCTURE
     1 MOL         1 TEMP              0 ****  ****    0 ROOT
