@<TRIPOS>MOLECULE
MOL
  176   174     1     0     0
SMALL
resp


@<TRIPOS>ATOM
      1 C1          1.1540    2.6640    6.5880 c3        1 MOL     -0.293674
      2 C2          0.9860    2.2520    5.0940 c         1 MOL      0.736652
      3 O1          1.8950    1.6730    4.5080 o         1 MOL     -0.598964
      4 H1          2.1850    2.4910    6.8980 hc        1 MOL      0.071645
      5 H2          0.9130    3.7210    6.7040 hc        1 MOL      0.071645
      6 H3          0.4840    2.0680    7.2080 hc        1 MOL      0.071645
      7 N1         -0.1280    2.6510    4.4980 n         1 MOL     -0.610069
      8 C3         -0.4080    2.5090    3.0970 c3        1 MOL      0.171132
      9 C4         -0.1000    3.8090    2.3810 c         1 MOL      0.665026
     10 O2         -0.5680    4.8380    2.9640 o         1 MOL     -0.588164
     11 C5         -1.8540    2.1010    2.8690 c3        1 MOL     -0.191210
     12 C6         -2.3180    1.7360    1.4080 c         1 MOL      0.794794
     13 O3         -1.9110    2.4150    0.4600 o         1 MOL     -0.763620
     14 O4         -3.0670    0.7530    1.2430 o         1 MOL     -0.763620
     15 H4         -0.8180    3.1610    5.0410 hn        1 MOL      0.308891
     16 H5          0.1590    1.6150    2.8500 h1        1 MOL      0.020975
     17 H6         -2.5370    2.8330    3.2900 hc        1 MOL      0.042951
     18 H7         -1.9930    1.1850    3.4450 hc        1 MOL      0.042951
     19 N2          0.4580    3.8160    1.1670 n         1 MOL     -0.516925
     20 C7          0.8770    4.9830    0.4020 c3        1 MOL     -0.204333
     21 C8         -0.3490    5.5850   -0.2240 c         1 MOL      0.653901
     22 O5         -0.2290    6.6790   -0.6260 o         1 MOL     -0.610382
     23 C9          1.9930    4.5750   -0.5950 c3        1 MOL      0.242392
     24 C10         2.6180    5.8680   -1.1970 c3        1 MOL     -0.255438
     25 C11         3.8090    5.4720   -2.1940 c3        1 MOL      0.042450
     26 C12         4.1730    6.7890   -2.9430 c3        1 MOL      0.060271
     27 N3          4.9080    6.5380   -4.1870 n4        1 MOL     -0.363249
     28 H8          0.4660    2.9420    0.6560 hn        1 MOL      0.189256
     29 H9          1.2340    5.7010    1.1420 h1        1 MOL      0.152501
     30 H10         1.6250    3.8380   -1.3150 hc        1 MOL      0.033106
     31 H11         2.8270    4.1400   -0.0460 hc        1 MOL      0.033106
     32 H12         2.8920    6.4810   -0.3440 hc        1 MOL      0.075924
     33 H13         1.9110    6.3790   -1.8550 hc        1 MOL      0.075924
     34 H14         3.4060    4.7550   -2.9000 hc        1 MOL      0.019763
     35 H15         4.6350    4.9990   -1.6760 hc        1 MOL      0.019763
     36 H16         4.7840    7.4200   -2.2820 hx        1 MOL      0.087376
     37 H17         3.3340    7.4400   -3.2060 hx        1 MOL      0.087376
     38 H18         5.1970    7.3460   -4.7320 hn        1 MOL      0.319508
     39 H19         5.7100    5.9420   -4.0950 hn        1 MOL      0.319508
     40 H20         4.2700    6.0760   -4.8330 hn        1 MOL      0.319508
     41 N4         -1.4720    4.9240   -0.3820 n         1 MOL     -0.431273
     42 C13        -2.5490    5.3990   -1.2070 c3        1 MOL      0.035227
     43 C14        -3.9320    5.1480   -0.6170 c         1 MOL      0.395970
     44 O6         -4.9540    5.5680   -1.1620 o         1 MOL     -0.516547
     45 C15        -2.4560    4.7150   -2.5460 c3        1 MOL     -0.227453
     46 C16        -2.4370    3.1710   -2.4510 c         1 MOL      0.768292
     47 O7         -3.4960    2.5320   -2.1380 o         1 MOL     -0.758437
     48 O8         -1.4410    2.4510   -2.7950 o         1 MOL     -0.758437
     49 H21        -1.4260    4.0080    0.0350 hn        1 MOL      0.344256
     50 H22        -2.4930    6.4680   -1.3670 h1        1 MOL      0.125884
     51 H23        -1.5820    5.0490   -3.1080 hc        1 MOL      0.065592
     52 H24        -3.2790    5.0680   -3.1660 hc        1 MOL      0.065592
     53 N5         -3.9960    4.4660    0.5690 n         1 MOL     -0.159714
     54 C17        -5.1770    4.0600    1.3230 c3        1 MOL     -0.142819
     55 C18        -6.0410    2.8890    0.8560 c         1 MOL      0.577946
     56 O9         -7.1580    2.7340    1.3540 o         1 MOL     -0.593067
     57 H25        -3.0920    4.1370    0.8660 hn        1 MOL      0.106622
     58 H26        -5.8020    4.9500    1.4110 h1        1 MOL      0.087416
     59 H27        -4.9160    3.7200    2.3260 h1        1 MOL      0.087416
     60 N6         -5.6230    2.0830   -0.1440 n         1 MOL     -0.177731
     61 C19        -6.5030    1.1110   -0.7180 c3        1 MOL     -0.314181
     62 C20        -6.6520   -0.2560    0.0390 c         1 MOL      0.475006
     63 O10        -7.2250   -1.2060   -0.5070 o         1 MOL     -0.529123
     64 C21        -6.0710    0.8510   -2.2140 c3        1 MOL     -0.103654
     65 C22        -4.8170   -0.0490   -2.4750 c         1 MOL      0.665198
     66 N7         -4.5780   -0.3080   -3.6820 n         1 MOL     -0.639246
     67 O11        -4.1820   -0.4780   -1.5510 o         1 MOL     -0.684440
     68 H28        -4.7140    2.2040   -0.5770 hn        1 MOL      0.239502
     69 H29        -7.4530    1.5950   -0.8940 h1        1 MOL      0.194366
     70 H30        -5.9020    1.7900   -2.7470 hc        1 MOL      0.076557
     71 H31        -6.9040    0.4910   -2.8220 hc        1 MOL      0.076557
     72 H32        -5.2130   -0.0210   -4.4040 hn        1 MOL      0.319539
     73 H33        -3.9530   -1.0910   -3.8760 hn        1 MOL      0.319539
     74 N8         -6.0820   -0.4650    1.2200 n         1 MOL     -0.121173
     75 C23        -6.2690   -1.7160    1.9950 c3        1 MOL     -0.504148
     76 C24        -5.2180   -2.8190    1.7070 c         1 MOL      0.573005
     77 O12        -5.3790   -3.9220    2.1920 o         1 MOL     -0.527588
     78 H34        -5.5510    0.2640    1.6710 hn        1 MOL      0.244653
     79 H35        -7.2210   -2.1880    1.7410 h1        1 MOL      0.203063
     80 H36        -6.1920   -1.4910    3.0540 h1        1 MOL      0.203063
     81 N9         -4.1540   -2.5960    0.9170 n         1 MOL     -0.266357
     82 C25        -3.0720   -3.4710    0.7280 c3        1 MOL      0.127043
     83 C26        -1.7040   -2.7710    0.6930 c         1 MOL      0.281260
     84 O13        -1.5990   -1.7130    0.0890 o         1 MOL     -0.580680
     85 C27        -3.1300   -4.3340   -0.6070 c3        1 MOL      0.233548
     86 C28        -4.3810   -5.1420   -0.8570 ca        1 MOL     -0.021376
     87 C29        -4.3460   -6.5830   -0.8060 ca        1 MOL     -0.184419
     88 C30        -5.6120   -4.5730   -1.1890 ca        1 MOL     -0.184419
     89 C31        -5.5370   -7.3540   -0.9770 ca        1 MOL     -0.222982
     90 C32        -6.7030   -5.4200   -1.4360 ca        1 MOL     -0.222982
     91 C33        -6.7550   -6.7980   -1.3690 ca        1 MOL      0.338295
     92 O14        -7.8690   -7.4470   -1.6690 oh        1 MOL     -0.482839
     93 H37        -4.1290   -1.7150    0.4270 hn        1 MOL      0.282313
     94 H38        -2.9970   -4.1810    1.5480 h1        1 MOL     -0.004572
     95 H39        -2.2300   -4.9350   -0.6700 hc        1 MOL     -0.053541
     96 H40        -3.0670   -3.6890   -1.4870 hc        1 MOL     -0.053541
     97 H41        -3.4420   -7.1750   -0.6780 ha        1 MOL      0.129532
     98 H42        -5.7460   -3.5160   -1.3580 ha        1 MOL      0.129532
     99 H43        -5.5480   -8.4260   -0.8290 ha        1 MOL      0.123129
    100 H44        -7.6370   -4.9260   -1.6740 ha        1 MOL      0.123129
    101 H45        -8.4830   -6.8430   -2.0990 ho        1 MOL      0.361985
    102 N10        -0.6460   -3.4800    1.1130 n         1 MOL     -0.191942
    103 C34         0.7700   -3.0280    1.0290 c3        1 MOL     -0.019928
    104 C35         1.7070   -4.0550    0.3070 c         1 MOL      0.381509
    105 O15         1.4520   -5.2610    0.4640 o         1 MOL     -0.530644
    106 C36         1.3630   -2.5490    2.3530 c3        1 MOL     -0.223018
    107 C37         1.3600   -3.7270    3.3370 c3        1 MOL     -0.048043
    108 C38         0.5290   -1.3270    2.8020 c3        1 MOL     -0.139575
    109 C39         1.7120   -3.4600    4.8070 c3        1 MOL     -0.142930
    110 H46        -0.8600   -4.3680    1.5490 hn        1 MOL      0.254615
    111 H47         0.7770   -2.2040    0.3170 h1        1 MOL      0.137997
    112 H48         2.3570   -2.1250    2.2010 hc        1 MOL      0.107011
    113 H49         2.1500   -4.4250    3.0720 hc        1 MOL      0.062255
    114 H50         0.4670   -4.3280    3.1760 hc        1 MOL      0.062255
    115 H51        -0.5110   -1.6360    2.9140 hc        1 MOL      0.077442
    116 H52         0.6740   -1.1560    3.8670 hc        1 MOL      0.077442
    117 H53         0.6770   -0.4870    2.1200 hc        1 MOL      0.077442
    118 H54         2.6780   -2.9710    4.9420 hc        1 MOL      0.043833
    119 H55         0.9890   -2.8490    5.3630 hc        1 MOL      0.043833
    120 H56         1.6550   -4.3880    5.3670 hc        1 MOL      0.043833
    121 N11         2.8270   -3.6170   -0.3030 n         1 MOL     -0.111535
    122 C40         3.8990   -4.3810   -0.9720 c3        1 MOL      0.036630
    123 C41         5.1940   -3.8870   -0.4940 c         1 MOL      0.422723
    124 O16         5.2280   -2.8290    0.2300 o         1 MOL     -0.535946
    125 C42         3.8540   -4.1680   -2.5000 c3        1 MOL     -0.118489
    126 O17         4.3800   -2.9330   -2.9040 oh        1 MOL     -0.541876
    127 H57         2.9480   -2.6180   -0.3100 hn        1 MOL      0.054171
    128 H58         3.7930   -5.4400   -0.7360 h1        1 MOL      0.070213
    129 H59         2.8520   -4.3310   -2.9070 h1        1 MOL      0.115501
    130 H60         4.5460   -4.8950   -2.9060 h1        1 MOL      0.115501
    131 H61         3.7460   -2.2230   -3.0360 ho        1 MOL      0.415225
    132 N12         6.3060   -4.4670   -0.8290 n         1 MOL     -0.297770
    133 C43         7.6040   -4.0610   -0.3240 c3        1 MOL      0.117340
    134 C44         7.9450   -2.5880   -0.6850 c         1 MOL      0.428537
    135 O18         8.5460   -1.8840    0.1040 o         1 MOL     -0.502404
    136 C45         8.7190   -4.9540   -1.0080 c3        1 MOL     -0.423754
    137 H62         6.1180   -5.3460   -1.2850 hn        1 MOL      0.260434
    138 H63         7.6390   -4.2010    0.7520 h1        1 MOL      0.096465
    139 H64         9.6450   -4.3800   -0.9830 hc        1 MOL      0.130865
    140 H65         8.8420   -5.8850   -0.4630 hc        1 MOL      0.130865
    141 H66         8.4140   -5.0790   -2.0440 hc        1 MOL      0.130865
    142 N13         7.3820   -1.9840   -1.7600 n         1 MOL     -0.355765
    143 C46         7.5000   -0.5840   -2.1470 c3        1 MOL      0.082326
    144 C47         6.8380    0.3720   -1.1510 c         1 MOL      0.333512
    145 O19         7.3550    1.4470   -0.9640 o         1 MOL     -0.521252
    146 C48         6.7940   -0.4650   -3.4550 c3        1 MOL     -0.212996
    147 H67         6.8350   -2.5900   -2.3620 hn        1 MOL      0.220786
    148 H68         8.5470   -0.3210   -2.3040 h1        1 MOL      0.087375
    149 H69         6.9600    0.5500   -3.8220 hc        1 MOL      0.051215
    150 H70         7.1640   -1.1410   -4.2200 hc        1 MOL      0.051215
    151 H71         5.7310   -0.5840   -3.2390 hc        1 MOL      0.051215
    152 N14         5.8060   -0.1060   -0.4610 n         1 MOL      0.017191
    153 C49         5.1210    0.7810    0.4470 c3        1 MOL     -0.421930
    154 C50         5.7580    0.7170    1.8470 c         1 MOL      0.672053
    155 O20         5.8940    1.7480    2.4780 o         1 MOL     -0.557732
    156 C51         3.5960    0.3370    0.5230 c3        1 MOL      0.201611
    157 C52         2.9600    0.6080   -0.8440 c3        1 MOL      0.007571
    158 C53         1.4620    0.3040   -0.7900 c         1 MOL      0.750080
    159 O21         0.5760    0.9470   -0.1700 o         1 MOL     -0.754866
    160 O22         0.9830   -0.4830   -1.6090 o         1 MOL     -0.754866
    161 H72         5.5720   -1.0800   -0.5770 hn        1 MOL      0.369170
    162 H73         5.2430    1.7930    0.0370 h1        1 MOL      0.154616
    163 H74         3.1870    0.9500    1.3250 hc        1 MOL     -0.010248
    164 H75         3.4400   -0.7150    0.7570 hc        1 MOL     -0.010248
    165 H76         3.3840   -0.0400   -1.6220 hc        1 MOL     -0.076622
    166 H77         3.1230    1.6250   -1.2030 hc        1 MOL     -0.076622
    167 N15         6.2210   -0.4370    2.3300 n         1 MOL     -0.314518
    168 C54         7.1080   -0.5880    3.4710 c3        1 MOL     -0.244575
    169 H78         8.0260   -1.0820    3.1530 h1        1 MOL      0.111826
    170 H79         7.3480    0.3950    3.8780 h1        1 MOL      0.111826
    171 H80         6.6180   -1.1890    4.2370 h1        1 MOL      0.111826
    172 H81         6.2590   -1.1790    1.6440 hn        1 MOL      0.198822
    173 Ca1        -1.7080    0.5120   -1.2940 Ca        1 MOL      1.788290
    174 O23        -1.1520   -0.5940   -3.6300 oh        1 MOL     -0.865638
    175 H82        -0.6250   -1.3850   -3.4560 ho        1 MOL      0.427409
    176 H83        -1.2520   -0.5830   -4.5820 ho        1 MOL      0.427409
@<TRIPOS>BOND
     1    1    2 1   
     2    1    4 1   
     3    1    5 1   
     4    1    6 1   
     5    2    3 2   
     6    2    7 1   
     7    7    8 1   
     8    7   15 1   
     9    8    9 1   
    10    8   11 1   
    11    8   16 1   
    12    9   10 2   
    13    9   19 1   
    14   11   12 1   
    15   11   17 1   
    16   11   18 1   
    17   12   13 1   
    18   12   14 1   
    19   19   20 1   
    20   19   28 1   
    21   20   21 1   
    22   20   23 1   
    23   20   29 1   
    24   21   22 2   
    25   21   41 1   
    26   23   24 1   
    27   23   30 1   
    28   23   31 1   
    29   24   25 1   
    30   24   32 1   
    31   24   33 1   
    32   25   26 1   
    33   25   34 1   
    34   25   35 1   
    35   26   27 1   
    36   26   36 1   
    37   26   37 1   
    38   27   38 1   
    39   27   39 1   
    40   27   40 1   
    41   41   42 1   
    42   41   49 1   
    43   42   43 1   
    44   42   45 1   
    45   42   50 1   
    46   43   44 2   
    47   43   53 1   
    48   45   46 1   
    49   45   51 1   
    50   45   52 1   
    51   46   47 1   
    52   46   48 1   
    53   53   54 1   
    54   53   57 1   
    55   54   55 1   
    56   54   58 1   
    57   54   59 1   
    58   55   56 2   
    59   55   60 1   
    60   60   61 1   
    61   60   68 1   
    62   61   62 1   
    63   61   64 1   
    64   61   69 1   
    65   62   63 2   
    66   62   74 1   
    67   64   65 1   
    68   64   70 1   
    69   64   71 1   
    70   65   66 1   
    71   65   67 2   
    72   66   72 1   
    73   66   73 1   
    74   74   75 1   
    75   74   78 1   
    76   75   76 1   
    77   75   79 1   
    78   75   80 1   
    79   76   77 2   
    80   76   81 1   
    81   81   82 1   
    82   81   93 1   
    83   82   83 1   
    84   82   85 1   
    85   82   94 1   
    86   83   84 2   
    87   83  102 1   
    88   85   86 1   
    89   85   95 1   
    90   85   96 1   
    91   86   87 ar  
    92   86   88 ar  
    93   87   89 ar  
    94   87   97 1   
    95   88   90 ar  
    96   88   98 1   
    97   89   91 ar  
    98   89   99 1   
    99   90   91 ar  
   100   90  100 1   
   101   91   92 1   
   102   92  101 1   
   103  102  103 1   
   104  102  110 1   
   105  103  104 1   
   106  103  106 1   
   107  103  111 1   
   108  104  105 2   
   109  104  121 1   
   110  106  107 1   
   111  106  108 1   
   112  106  112 1   
   113  107  109 1   
   114  107  113 1   
   115  107  114 1   
   116  108  115 1   
   117  108  116 1   
   118  108  117 1   
   119  109  118 1   
   120  109  119 1   
   121  109  120 1   
   122  121  122 1   
   123  121  127 1   
   124  122  123 1   
   125  122  125 1   
   126  122  128 1   
   127  123  124 2   
   128  123  132 1   
   129  125  126 1   
   130  125  129 1   
   131  125  130 1   
   132  126  131 1   
   133  132  133 1   
   134  132  137 1   
   135  133  134 1   
   136  133  136 1   
   137  133  138 1   
   138  134  135 2   
   139  134  142 1   
   140  136  139 1   
   141  136  140 1   
   142  136  141 1   
   143  142  143 1   
   144  142  147 1   
   145  143  144 1   
   146  143  146 1   
   147  143  148 1   
   148  144  145 2   
   149  144  152 1   
   150  146  149 1   
   151  146  150 1   
   152  146  151 1   
   153  152  153 1   
   154  152  161 1   
   155  153  154 1   
   156  153  156 1   
   157  153  162 1   
   158  154  155 2   
   159  154  167 1   
   160  156  157 1   
   161  156  163 1   
   162  156  164 1   
   163  157  158 1   
   164  157  165 1   
   165  157  166 1   
   166  158  159 1   
   167  158  160 1   
   168  167  168 1   
   169  167  172 1   
   170  168  169 1   
   171  168  170 1   
   172  168  171 1   
   173  174  175 1   
   174  174  176 1   
@<TRIPOS>SUBSTRUCTURE
     1 MOL         1 TEMP              0 ****  ****    0 ROOT
