@<TRIPOS>MOLECULE
MOL
  179   176     1     0     0
SMALL
resp


@<TRIPOS>ATOM
      1 C1         -0.8290    4.6000    6.0760 c3        1 MOL     -0.265857
      2 C2         -0.7070    4.0400    4.5940 c         1 MOL      0.607314
      3 O1          0.1830    4.4840    3.8260 o         1 MOL     -0.593894
      4 H1         -0.5710    5.6580    6.0860 hc        1 MOL      0.075379
      5 H2         -1.8510    4.4710    6.4300 hc        1 MOL      0.075379
      6 H3         -0.1460    4.0540    6.7270 hc        1 MOL      0.075379
      7 N1         -1.5690    3.2030    4.1320 n         1 MOL     -0.483428
      8 C3         -1.8510    2.7430    2.7350 c3        1 MOL     -0.058043
      9 C4         -2.7200    3.7190    1.9760 c         1 MOL      0.567062
     10 O2         -3.9630    3.7150    2.1440 o         1 MOL     -0.519474
     11 C5         -2.4370    1.3420    2.6950 c3        1 MOL     -0.194217
     12 C6         -2.3820    0.7530    1.2870 c         1 MOL      0.812196
     13 O3         -1.4740    1.2100    0.5150 o         1 MOL     -0.804155
     14 O4         -3.1450   -0.1340    0.8680 o         1 MOL     -0.804155
     15 H4         -2.2630    2.8100    4.7510 hn        1 MOL      0.303928
     16 H5         -0.8800    2.6850    2.2280 h1        1 MOL      0.081034
     17 H6         -3.4430    1.3790    3.1080 hc        1 MOL      0.069161
     18 H7         -1.8410    0.7140    3.3580 hc        1 MOL      0.069161
     19 N2         -2.0460    4.5190    1.1240 n         1 MOL     -0.275058
     20 C7         -2.6210    5.7150    0.5510 c3        1 MOL     -0.067641
     21 C8         -3.7430    5.3590   -0.4790 c         1 MOL      0.335665
     22 O5         -4.7410    6.0570   -0.5340 o         1 MOL     -0.516640
     23 C9         -1.5840    6.6070   -0.1390 c3        1 MOL     -0.073703
     24 C10        -2.1630    7.9400   -0.5690 c3        1 MOL     -0.127804
     25 C11        -1.1580    8.9070   -1.2110 c3        1 MOL     -0.076716
     26 C12        -1.9010   10.1970   -1.6710 c3        1 MOL     -0.028307
     27 N3         -0.9810   11.3850   -1.4180 n4        1 MOL     -0.319725
     28 H8         -1.0660    4.3700    0.8940 hn        1 MOL      0.281766
     29 H9         -3.0270    6.2970    1.3860 h1        1 MOL      0.113738
     30 H10        -1.1770    6.0500   -0.9870 hc        1 MOL      0.066394
     31 H11        -0.7980    6.7140    0.6100 hc        1 MOL      0.066394
     32 H12        -2.7300    8.4190    0.2250 hc        1 MOL      0.072536
     33 H13        -2.9820    7.7840   -1.2620 hc        1 MOL      0.072536
     34 H14        -0.7330    8.3870   -2.0610 hc        1 MOL      0.068184
     35 H15        -0.2890    9.0120   -0.5620 hc        1 MOL      0.068184
     36 H16        -2.7140   10.3210   -0.9610 hx        1 MOL      0.125032
     37 H17        -2.2390   10.2260   -2.7080 hx        1 MOL      0.125032
     38 H18         0.0040   11.1720   -1.5060 hn        1 MOL      0.316550
     39 H19        -1.3050   12.1810   -1.9380 hn        1 MOL      0.316550
     40 H20        -1.0520   11.6300   -0.4400 hn        1 MOL      0.316550
     41 N4         -3.5310    4.3310   -1.3000 n         1 MOL     -0.224720
     42 C13        -4.5290    3.6770   -2.2880 c3        1 MOL     -0.014802
     43 C14        -5.6070    2.7890   -1.5330 c         1 MOL      0.369289
     44 O6         -6.6320    2.5040   -2.1540 o         1 MOL     -0.514214
     45 C15        -3.7640    2.7200   -3.2870 c3        1 MOL     -0.280995
     46 C16        -2.8930    1.7010   -2.5670 c         1 MOL      0.783870
     47 O7         -3.4050    0.6020   -2.2470 o         1 MOL     -0.761212
     48 O8         -1.6440    1.9150   -2.3480 o         1 MOL     -0.761212
     49 H21        -2.6030    3.9270   -1.2570 hn        1 MOL      0.225447
     50 H22        -5.0310    4.4380   -2.8910 h1        1 MOL      0.123479
     51 H23        -3.1760    3.2760   -4.0100 hc        1 MOL      0.083891
     52 H24        -4.5440    2.1210   -3.7510 hc        1 MOL      0.083891
     53 N5         -5.4570    2.4550   -0.2510 n         1 MOL     -0.005651
     54 C17        -6.3770    1.6810    0.5670 c3        1 MOL     -0.161188
     55 C18        -6.7230    0.4090   -0.0420 c         1 MOL      0.466711
     56 O9         -7.8140   -0.0970    0.1770 o         1 MOL     -0.545335
     57 H25        -4.6030    2.7360    0.2110 hn        1 MOL      0.095611
     58 H26        -7.2490    2.3110    0.7610 h1        1 MOL      0.102660
     59 H27        -5.8940    1.4460    1.5180 h1        1 MOL      0.102660
     60 N6         -5.8080   -0.3110   -0.7360 n         1 MOL     -0.238487
     61 C19        -6.0630   -1.6700   -1.1250 c3        1 MOL     -0.017656
     62 C20        -5.9210   -2.6100    0.0240 c         1 MOL      0.390853
     63 O10        -6.4230   -3.7050   -0.0710 o         1 MOL     -0.485547
     64 C21        -5.2580   -2.1730   -2.3670 c3        1 MOL     -0.125684
     65 C22        -3.8350   -2.7070   -2.1700 c         1 MOL      0.622279
     66 N7         -3.4050   -3.5520   -3.0650 n         1 MOL     -0.561297
     67 O11        -3.1500   -2.4870   -1.1820 o         1 MOL     -0.639205
     68 H28        -4.9230    0.1200   -0.9810 hn        1 MOL      0.250566
     69 H29        -7.1190   -1.7760   -1.3820 h1        1 MOL      0.111406
     70 H30        -5.1980   -1.3860   -3.1280 hc        1 MOL      0.052259
     71 H31        -5.8330   -2.9550   -2.8620 hc        1 MOL      0.052259
     72 H32        -4.0400   -3.6840   -3.8390 hn        1 MOL      0.301299
     73 H33        -2.4400   -3.8320   -3.0380 hn        1 MOL      0.301299
     74 N8         -5.1860   -2.3150    1.1550 n         1 MOL     -0.146978
     75 C23        -5.0950   -3.3740    2.2020 c3        1 MOL     -0.347816
     76 C24        -3.7010   -4.1070    2.1100 c         1 MOL      0.801826
     77 O12        -3.4830   -4.9890    2.9020 o         1 MOL     -0.610799
     78 H34        -4.5760   -1.5130    1.1900 hn        1 MOL      0.165692
     79 H35        -5.9520   -4.0510    2.1380 h1        1 MOL      0.139747
     80 H36        -5.0130   -2.8210    3.1370 h1        1 MOL      0.139747
     81 N9         -2.7230   -3.6560    1.3080 n         1 MOL     -0.803625
     82 C25        -1.4400   -4.2650    1.1450 c3        1 MOL      0.413493
     83 C26        -0.3470   -3.1480    1.0510 c         1 MOL      0.505824
     84 O13        -0.6090   -2.1070    0.5050 o         1 MOL     -0.750175
     85 C27        -1.4160   -5.2070   -0.0720 c3        1 MOL     -0.123008
     86 C28        -2.4400   -6.4230   -0.0360 ca        1 MOL      0.251173
     87 C29        -3.7010   -6.1040   -0.5390 ca        1 MOL     -0.326079
     88 C30        -2.0380   -7.7160    0.2990 ca        1 MOL     -0.326079
     89 C31        -4.6910   -7.1160   -0.4720 ca        1 MOL     -0.150592
     90 C32        -3.0250   -8.6910    0.3470 ca        1 MOL     -0.150592
     91 C33        -4.3670   -8.4360    0.0350 ca        1 MOL      0.263010
     92 O14        -5.3380   -9.3680    0.0590 oh        1 MOL     -0.470661
     93 H37        -2.8650   -2.8990    0.6600 hn        1 MOL      0.589775
     94 H38        -1.1560   -4.9060    1.9820 h1        1 MOL     -0.007845
     95 H39        -0.4260   -5.6500   -0.0480 hc        1 MOL     -0.011654
     96 H40        -1.5670   -4.6410   -0.9900 hc        1 MOL     -0.011654
     97 H41        -3.9870   -5.1120   -0.8540 ha        1 MOL      0.165902
     98 H42        -1.0150   -7.9410    0.5560 ha        1 MOL      0.165902
     99 H43        -5.7230   -6.8500   -0.6490 ha        1 MOL      0.115797
    100 H44        -2.7170   -9.6750    0.6670 ha        1 MOL      0.115797
    101 H45        -5.0940  -10.1570    0.5650 ho        1 MOL      0.362142
    102 N10         0.8910   -3.3220    1.5210 n         1 MOL     -0.562328
    103 C34         2.0050   -2.3580    1.3160 c3        1 MOL      0.128347
    104 C35         3.2610   -3.0850    0.9470 c         1 MOL      0.454442
    105 O15         3.6320   -4.0210    1.7340 o         1 MOL     -0.562349
    106 C36         2.1500   -1.4340    2.6040 c3        1 MOL     -0.066074
    107 C37         1.2870   -0.1890    2.5230 c3        1 MOL      0.080553
    108 C38         3.6290   -0.9880    2.9120 c3        1 MOL      0.045632
    109 C39         1.4210    0.9550    3.5040 c3        1 MOL     -0.112858
    110 H46         1.0500   -4.2490    1.8830 hn        1 MOL      0.316891
    111 H47         1.8430   -1.7100    0.4500 h1        1 MOL      0.092096
    112 H48         1.8210   -1.8610    3.5450 hc        1 MOL      0.039722
    113 H49         0.2830   -0.6160    2.5810 hc        1 MOL      0.033655
    114 H50         1.4430    0.2420    1.5300 hc        1 MOL      0.033655
    115 H51         3.6110   -0.4830    3.8770 hc        1 MOL     -0.024462
    116 H52         4.3420   -1.8010    3.0540 hc        1 MOL     -0.024462
    117 H53         4.0320   -0.3900    2.1010 hc        1 MOL     -0.024462
    118 H54         0.6040    1.6700    3.4180 hc        1 MOL      0.032940
    119 H55         1.3000    0.6170    4.5290 hc        1 MOL      0.032940
    120 H56         2.3270    1.5230    3.2990 hc        1 MOL      0.032940
    121 N11         3.9330   -2.6810   -0.0770 n         1 MOL     -0.284132
    122 C40         5.2610   -3.1410   -0.5050 c3        1 MOL      0.031824
    123 C41         6.4360   -2.3100    0.1060 c         1 MOL      0.383565
    124 O16         6.1780   -1.3140    0.7950 o         1 MOL     -0.273929
    125 C42         5.2800   -2.9150   -2.0360 c3        1 MOL      0.004004
    126 O17         5.4500   -1.5720   -2.3540 oh        1 MOL     -0.431777
    127 H57         3.4640   -2.0180   -0.6660 hn        1 MOL      0.197903
    128 H58         5.5120   -4.1910   -0.3570 h1        1 MOL      0.063850
    129 H59         4.3740   -3.2950   -2.4970 h1        1 MOL      0.049373
    130 H60         6.1730   -3.4360   -2.3860 h1        1 MOL      0.049373
    131 H61         4.5690   -1.2220   -2.1970 ho        1 MOL      0.310419
    132 N12         7.7000   -2.7360   -0.0580 n         1 MOL     -0.456783
    133 C43         8.8950   -1.9550    0.3450 c3        1 MOL      0.102074
    134 C44         8.9910   -0.5650   -0.3140 c         1 MOL      0.428304
    135 O18         9.4180    0.4290    0.2450 o         1 MOL     -0.498476
    136 C45        10.2030   -2.7580    0.2130 c3        1 MOL     -0.282630
    137 H62         7.8020   -3.5420   -0.6640 hn        1 MOL      0.311083
    138 H63         8.8190   -1.7850    1.4270 h1        1 MOL      0.103079
    139 H64        10.3800   -2.9780   -0.8390 hc        1 MOL      0.088273
    140 H65        11.0740   -2.1830    0.5340 hc        1 MOL      0.088273
    141 H66        10.1770   -3.7010    0.7630 hc        1 MOL      0.088273
    142 N13         8.6310   -0.5900   -1.5870 n         1 MOL     -0.274382
    143 C46         8.4980    0.6600   -2.3730 c3        1 MOL      0.007359
    144 C47         7.3580    1.6340   -1.8420 c         1 MOL      0.421341
    145 O19         7.5470    2.8490   -2.1270 o         1 MOL     -0.558015
    146 C48         8.2840    0.2800   -3.7900 c3        1 MOL     -0.128939
    147 H67         8.7140   -1.4280   -2.1480 hn        1 MOL      0.269575
    148 H68         9.4260    1.2220   -2.2730 h1        1 MOL      0.096967
    149 H69         9.0910   -0.4000   -4.0770 hc        1 MOL      0.037084
    150 H70         7.3210   -0.2020   -3.9280 hc        1 MOL      0.037084
    151 H71         8.3260    1.1470   -4.4570 hc        1 MOL      0.037084
    152 N14         6.4530    1.2340   -0.9880 n         1 MOL      0.103273
    153 C49         5.5610    2.0500   -0.2270 c3        1 MOL     -0.172074
    154 C50         6.0670    2.2610    1.2330 c         1 MOL      0.483810
    155 O20         5.8820    3.2880    1.8070 o         1 MOL     -0.558905
    156 C51         4.1200    1.2900   -0.2060 c3        1 MOL      0.173017
    157 C52         3.4190    1.3540   -1.5780 c3        1 MOL     -0.312242
    158 C53         2.3530    0.2410   -1.8320 c         1 MOL      0.708576
    159 O21         1.0910    0.5430   -1.7390 o         1 MOL     -0.665310
    160 O22         2.7310   -0.9980   -1.8650 o         1 MOL     -0.665310
    161 H72         6.4530    0.2410   -0.8160 hn        1 MOL     -0.163071
    162 H73         5.5440    3.0270   -0.7330 h1        1 MOL      0.105662
    163 H74         3.5030    1.7870    0.5370 hc        1 MOL      0.022931
    164 H75         4.3980    0.2700    0.0860 hc        1 MOL      0.022931
    165 H76         4.1990    1.1980   -2.3250 hc        1 MOL      0.074694
    166 H77         2.9210    2.3000   -1.7830 hc        1 MOL      0.074694
    167 N15         6.6530    1.2710    1.8390 n         1 MOL     -0.126460
    168 C54         7.0990    1.3430    3.2820 c3        1 MOL     -0.180613
    169 H78         7.2830    2.3830    3.5530 h1        1 MOL      0.087860
    170 H79         6.3210    0.9330    3.9240 h1        1 MOL      0.087860
    171 H80         8.0170    0.7680    3.4080 h1        1 MOL      0.087860
    172 H81         6.7220    0.3630    1.3880 hn        1 MOL      0.097299
    173 Ca1        -1.2240   -0.4570   -1.3460 Ca        1 MOL      1.812647
    174 O23         0.6080   -2.2850   -2.4020 oh        1 MOL     -0.859600
    175 H82         1.5030   -1.9390   -2.3400 ho        1 MOL      0.410768
    176 H83         0.7260   -3.2330   -2.4660 ho        1 MOL      0.410768
    177 O24        -1.4740   -0.9160   -4.0100 oh        1 MOL     -0.859600
    178 H84        -2.1570   -0.9590   -4.6800 ho        1 MOL      0.410768
    179 H85        -0.7770   -0.4020   -4.4210 ho        1 MOL      0.410768
@<TRIPOS>BOND
     1    1    2 1   
     2    1    4 1   
     3    1    5 1   
     4    1    6 1   
     5    2    3 2   
     6    2    7 1   
     7    7    8 1   
     8    7   15 1   
     9    8    9 1   
    10    8   11 1   
    11    8   16 1   
    12    9   10 2   
    13    9   19 1   
    14   11   12 1   
    15   11   17 1   
    16   11   18 1   
    17   12   13 1   
    18   12   14 1   
    19   19   20 1   
    20   19   28 1   
    21   20   21 1   
    22   20   23 1   
    23   20   29 1   
    24   21   22 2   
    25   21   41 1   
    26   23   24 1   
    27   23   30 1   
    28   23   31 1   
    29   24   25 1   
    30   24   32 1   
    31   24   33 1   
    32   25   26 1   
    33   25   34 1   
    34   25   35 1   
    35   26   27 1   
    36   26   36 1   
    37   26   37 1   
    38   27   38 1   
    39   27   39 1   
    40   27   40 1   
    41   41   42 1   
    42   41   49 1   
    43   42   43 1   
    44   42   45 1   
    45   42   50 1   
    46   43   44 2   
    47   43   53 1   
    48   45   46 1   
    49   45   51 1   
    50   45   52 1   
    51   46   47 1   
    52   46   48 1   
    53   53   54 1   
    54   53   57 1   
    55   54   55 1   
    56   54   58 1   
    57   54   59 1   
    58   55   56 2   
    59   55   60 1   
    60   60   61 1   
    61   60   68 1   
    62   61   62 1   
    63   61   64 1   
    64   61   69 1   
    65   62   63 2   
    66   62   74 1   
    67   64   65 1   
    68   64   70 1   
    69   64   71 1   
    70   65   66 1   
    71   65   67 2   
    72   66   72 1   
    73   66   73 1   
    74   74   75 1   
    75   74   78 1   
    76   75   76 1   
    77   75   79 1   
    78   75   80 1   
    79   76   77 2   
    80   76   81 1   
    81   81   82 1   
    82   81   93 1   
    83   82   83 1   
    84   82   85 1   
    85   82   94 1   
    86   83   84 2   
    87   83  102 1   
    88   85   86 1   
    89   85   95 1   
    90   85   96 1   
    91   86   87 ar  
    92   86   88 ar  
    93   87   89 ar  
    94   87   97 1   
    95   88   90 ar  
    96   88   98 1   
    97   89   91 ar  
    98   89   99 1   
    99   90   91 ar  
   100   90  100 1   
   101   91   92 1   
   102   92  101 1   
   103  102  103 1   
   104  102  110 1   
   105  103  104 1   
   106  103  106 1   
   107  103  111 1   
   108  104  105 2   
   109  104  121 1   
   110  106  107 1   
   111  106  108 1   
   112  106  112 1   
   113  107  109 1   
   114  107  113 1   
   115  107  114 1   
   116  108  115 1   
   117  108  116 1   
   118  108  117 1   
   119  109  118 1   
   120  109  119 1   
   121  109  120 1   
   122  121  122 1   
   123  121  127 1   
   124  122  123 1   
   125  122  125 1   
   126  122  128 1   
   127  123  124 2   
   128  123  132 1   
   129  125  126 1   
   130  125  129 1   
   131  125  130 1   
   132  126  131 1   
   133  132  133 1   
   134  132  137 1   
   135  133  134 1   
   136  133  136 1   
   137  133  138 1   
   138  134  135 2   
   139  134  142 1   
   140  136  139 1   
   141  136  140 1   
   142  136  141 1   
   143  142  143 1   
   144  142  147 1   
   145  143  144 1   
   146  143  146 1   
   147  143  148 1   
   148  144  145 2   
   149  144  152 1   
   150  146  149 1   
   151  146  150 1   
   152  146  151 1   
   153  152  153 1   
   154  152  161 1   
   155  153  154 1   
   156  153  156 1   
   157  153  162 1   
   158  154  155 2   
   159  154  167 1   
   160  156  157 1   
   161  156  163 1   
   162  156  164 1   
   163  157  158 1   
   164  157  165 1   
   165  157  166 1   
   166  158  159 1   
   167  158  160 1   
   168  167  168 1   
   169  167  172 1   
   170  168  169 1   
   171  168  170 1   
   172  168  171 1   
   173  174  175 1   
   174  174  176 1   
   175  177  178 1   
   176  177  179 1   
@<TRIPOS>SUBSTRUCTURE
     1 MOL         1 TEMP              0 ****  ****    0 ROOT
