@<TRIPOS>MOLECULE
MOL
  189   185     1     0     0
SMALL
resp


@<TRIPOS>ATOM
      1 C1         -0.3470   -0.6860    6.7990 c3        1 MOL     -0.443116
      2 C2         -0.7070   -0.2600    5.3990 c         1 MOL      0.750165
      3 O1          0.2070    0.1510    4.6480 o         1 MOL     -0.636033
      4 H1          0.3150   -1.5520    6.7560 hc        1 MOL      0.113935
      5 H2          0.1590    0.1330    7.3100 hc        1 MOL      0.113935
      6 H3         -1.2540   -0.9490    7.3430 hc        1 MOL      0.113935
      7 N1         -1.9610   -0.3410    4.9710 n         1 MOL     -0.582962
      8 C3         -2.3990    0.1700    3.6990 c3        1 MOL      0.047286
      9 C4         -2.6000    1.7150    3.7950 c         1 MOL      0.591342
     10 O2         -3.3740    2.2190    4.5950 o         1 MOL     -0.572749
     11 C5         -3.6630   -0.6700    3.1960 c3        1 MOL     -0.094451
     12 C6         -4.1570   -0.1530    1.8560 c         1 MOL      0.698672
     13 O3         -5.2930   -0.4640    1.5080 o         1 MOL     -0.664316
     14 O4         -3.3490    0.4210    1.0530 o         1 MOL     -0.664316
     15 H4         -2.6060   -0.8240    5.5840 hn        1 MOL      0.324388
     16 H5         -1.6260    0.0150    2.9370 h1        1 MOL      0.037642
     17 H6         -4.4470   -0.5390    3.9350 hc        1 MOL      0.022145
     18 H7         -3.4970   -1.7460    3.0780 hc        1 MOL      0.022145
     19 N2         -1.8430    2.4120    2.9590 n         1 MOL     -0.353894
     20 C7         -1.9940    3.8850    2.7930 c3        1 MOL      0.028777
     21 C8         -3.1620    4.4080    1.9310 c         1 MOL      0.406603
     22 O5         -3.6640    5.5060    2.2760 o         1 MOL     -0.546524
     23 C9         -0.5860    4.3940    2.2880 c3        1 MOL     -0.032560
     24 C10        -0.5290    4.5110    0.7240 c3        1 MOL     -0.042360
     25 C11         0.8580    4.8440    0.2040 c3        1 MOL      0.012298
     26 C12         0.8340    5.2080   -1.3160 c3        1 MOL      0.074534
     27 N3          2.1900    5.3760   -1.8230 n4        1 MOL     -0.269648
     28 H8         -1.2970    1.8100    2.3630 hn        1 MOL      0.162010
     29 H9         -2.1180    4.3090    3.7910 h1        1 MOL      0.097838
     30 H10         0.2350    3.8230    2.7130 hc        1 MOL      0.043983
     31 H11        -0.5820    5.3770    2.7620 hc        1 MOL      0.043983
     32 H12        -1.2340    5.2410    0.3200 hc        1 MOL      0.012614
     33 H13        -0.8780    3.6060    0.2420 hc        1 MOL      0.012614
     34 H14         1.4220    3.9260    0.3430 hc        1 MOL     -0.011626
     35 H15         1.3630    5.5070    0.9030 hc        1 MOL     -0.011626
     36 H16         0.2510    6.1200   -1.3870 hx        1 MOL      0.060805
     37 H17         0.3090    4.4440   -1.8880 hx        1 MOL      0.060805
     38 H18         2.6230    4.4770   -2.0240 hn        1 MOL      0.289232
     39 H19         2.2390    5.9220   -2.6690 hn        1 MOL      0.289232
     40 H20         2.8150    5.8170   -1.1690 hn        1 MOL      0.289232
     41 N4         -3.6280    3.7490    0.8470 n         1 MOL     -0.121391
     42 C13        -4.5490    4.3720   -0.1300 c3        1 MOL     -0.072445
     43 C14        -5.8080    3.6000   -0.5740 c         1 MOL      0.565087
     44 O6         -6.3690    3.7220   -1.6350 o         1 MOL     -0.505467
     45 C15        -3.8270    4.8220   -1.4380 c3        1 MOL     -0.086811
     46 C16        -2.7520    3.8080   -2.0550 c         1 MOL      0.876524
     47 O7         -2.7050    2.6550   -1.6070 o         1 MOL     -0.757404
     48 O8         -2.0080    4.2330   -2.9590 o         1 MOL     -0.757404
     49 H21        -3.1860    2.8560    0.6900 hn        1 MOL      0.021701
     50 H22        -4.9580    5.2270    0.3930 h1        1 MOL      0.092447
     51 H23        -3.3020    5.7710   -1.3260 hc        1 MOL      0.015810
     52 H24        -4.5170    5.0570   -2.2400 hc        1 MOL      0.015810
     53 N5         -6.2220    2.7020    0.3510 n         1 MOL     -0.423234
     54 C17        -7.5450    2.0870    0.3260 c3        1 MOL     -0.140431
     55 C18        -7.8260    1.1810   -0.8340 c         1 MOL      0.472250
     56 O9         -8.9660    0.9610   -1.1800 o         1 MOL     -0.565609
     57 H25        -5.6400    2.5360    1.1600 hn        1 MOL      0.293080
     58 H26        -8.3090    2.8650    0.3490 h1        1 MOL      0.106128
     59 H27        -7.6590    1.5430    1.2580 h1        1 MOL      0.106128
     60 N6         -6.8030    0.5510   -1.3990 n         1 MOL     -0.102468
     61 C19        -6.8970   -0.5590   -2.3990 c3        1 MOL     -0.126982
     62 C20        -6.9370   -1.9490   -1.6890 c         1 MOL      0.461641
     63 O10        -7.2740   -2.9810   -2.3360 o         1 MOL     -0.559296
     64 C21        -5.8420   -0.3280   -3.4940 c3        1 MOL     -0.136027
     65 C22        -4.3820   -0.1240   -3.0070 c         1 MOL      0.666731
     66 O11        -3.6410    0.6990   -3.5850 o         1 MOL     -0.641476
     67 O12        -3.9700   -0.7050   -1.9870 o         1 MOL     -0.641476
     68 H28        -5.8950    0.9030   -1.1600 hn        1 MOL      0.171206
     69 H29        -7.8260   -0.5420   -2.9620 h1        1 MOL      0.139397
     70 H30        -6.0230    0.5570   -4.1060 hc        1 MOL      0.049740
     71 H31        -5.7730   -1.2090   -4.1420 hc        1 MOL      0.049740
     72 N7         -6.6140   -2.0770   -0.4030 n         1 MOL     -0.218485
     73 C23        -6.5310   -3.3080    0.4230 c3        1 MOL     -0.059255
     74 C24        -5.2590   -4.1270    0.1700 c         1 MOL      0.468840
     75 O13        -5.3260   -5.3440    0.1430 o         1 MOL     -0.550802
     76 H32        -6.2440   -1.2540    0.0480 hn        1 MOL      0.167896
     77 H33        -7.4010   -3.9650    0.4130 h1        1 MOL      0.076109
     78 H34        -6.3450   -2.9840    1.4520 h1        1 MOL      0.076109
     79 N8         -4.2010   -3.4640   -0.2880 n         1 MOL     -0.038816
     80 C25        -2.9990   -4.1400   -0.8310 c3        1 MOL     -0.460447
     81 C26        -1.7410   -3.3390   -0.3990 c         1 MOL      0.676717
     82 O14        -1.7690   -2.0850   -0.3910 o         1 MOL     -0.608869
     83 C27        -3.0670   -4.3500   -2.3650 c3        1 MOL      0.475522
     84 C28        -4.2980   -5.0580   -2.9090 c3        1 MOL     -0.404571
     85 O15        -2.9580   -3.1470   -3.1050 oh        1 MOL     -0.610014
     86 H35        -4.2590   -2.4500   -0.3020 hn        1 MOL      0.106463
     87 H36        -2.9350   -5.0890   -0.2890 h1        1 MOL      0.149067
     88 H37        -2.2780   -5.0250   -2.6900 h1        1 MOL      0.007247
     89 H38        -3.5370   -2.5410   -2.6230 ho        1 MOL      0.394522
     90 H39        -4.4590   -6.0070   -2.3890 hc        1 MOL      0.111674
     91 H40        -5.1500   -4.4860   -2.5210 hc        1 MOL      0.111674
     92 H41        -4.2880   -5.1310   -3.9940 hc        1 MOL      0.111674
     93 N9         -0.6210   -4.0700   -0.2120 n         1 MOL     -0.565947
     94 C29         0.6550   -3.5360    0.2640 c3        1 MOL     -0.004705
     95 C30         1.6750   -3.5360   -0.9600 c         1 MOL      0.520627
     96 O16         2.0570   -4.5410   -1.5330 o         1 MOL     -0.530949
     97 C31         1.1210   -4.4200    1.4130 c3        1 MOL      0.111809
     98 C32         0.2610   -4.0070    2.6210 c3        1 MOL     -0.010021
     99 C33         2.6160   -4.3010    1.6250 c3        1 MOL     -0.135976
    100 C34         0.4870   -4.7590    3.9650 c3        1 MOL     -0.319630
    101 H42        -0.6760   -5.0680   -0.2930 hn        1 MOL      0.324408
    102 H43         0.5030   -2.4860    0.5020 h1        1 MOL      0.018001
    103 H44         0.9520   -5.4610    1.1570 hc        1 MOL      0.019394
    104 H45        -0.8040   -4.1470    2.4580 hc        1 MOL      0.069418
    105 H46         0.5300   -2.9900    2.9070 hc        1 MOL      0.069418
    106 H47         2.8770   -4.8530    2.5270 hc        1 MOL      0.031843
    107 H48         3.1090   -4.7750    0.7660 hc        1 MOL      0.031843
    108 H49         2.8920   -3.2540    1.7120 hc        1 MOL      0.031843
    109 H50         1.3050   -4.3050    4.5160 hc        1 MOL      0.078167
    110 H51        -0.4470   -4.7770    4.5270 hc        1 MOL      0.078167
    111 H52         0.7110   -5.8000    3.7260 hc        1 MOL      0.078167
    112 N10         2.1120   -2.3280   -1.3700 n         1 MOL     -0.215711
    113 C35         3.2620   -2.1010   -2.2300 c3        1 MOL     -0.069741
    114 C36         4.5830   -2.1880   -1.4480 c         1 MOL      0.355525
    115 O17         4.5310   -2.3730   -0.2530 o         1 MOL     -0.336880
    116 C37         3.1480   -0.6910   -2.8490 c3        1 MOL      0.218893
    117 C38         1.9250   -0.4990   -3.7040 c3        1 MOL     -0.122607
    118 O18         3.1340    0.2600   -1.7850 oh        1 MOL     -0.537035
    119 H53         1.6530   -1.4890   -1.0360 hn        1 MOL      0.115555
    120 H54         3.3020   -2.7930   -3.0750 h1        1 MOL      0.087813
    121 H55         4.0480   -0.5200   -3.4520 h1        1 MOL      0.016790
    122 H56         2.2350    0.2310   -1.4620 ho        1 MOL      0.262697
    123 H57         2.0680    0.4740   -4.1690 hc        1 MOL      0.038267
    124 H58         2.0120   -1.2590   -4.4900 hc        1 MOL      0.038267
    125 H59         0.9460   -0.6130   -3.2310 hc        1 MOL      0.038267
    126 N11         5.7870   -1.9540   -2.0120 n         1 MOL     -0.290394
    127 C39         7.1050   -1.8670   -1.3170 c3        1 MOL     -0.086019
    128 C40         7.1470   -0.7980   -0.2560 c         1 MOL      0.398173
    129 O19         7.5100   -1.1620    0.8600 o         1 MOL     -0.503674
    130 C41         8.3540   -1.6420   -2.3150 c3        1 MOL      0.156918
    131 C42         8.9300   -2.9940   -2.7470 c3        1 MOL     -0.334267
    132 O20         7.9790   -0.9290   -3.4690 oh        1 MOL     -0.598271
    133 H60         5.8270   -1.8300   -3.0090 hn        1 MOL      0.240742
    134 H61         7.2650   -2.7920   -0.7600 h1        1 MOL      0.149764
    135 H62         9.1450   -1.1220   -1.7770 h1        1 MOL      0.078695
    136 H63         8.4750   -1.3560   -4.1750 ho        1 MOL      0.409434
    137 H64         9.7360   -2.8770   -3.4770 hc        1 MOL      0.106439
    138 H65         9.3680   -3.5830   -1.9380 hc        1 MOL      0.106439
    139 H66         8.1390   -3.6310   -3.1420 hc        1 MOL      0.106439
    140 N12         6.5940    0.3920   -0.5140 n         1 MOL     -0.296445
    141 C43         6.6300    1.5410    0.4460 c3        1 MOL      0.026745
    142 C44         5.6060    1.2760    1.5620 c         1 MOL      0.376654
    143 O21         5.4470    2.2000    2.4420 o         1 MOL     -0.553054
    144 C45         6.2830    2.8250   -0.3230 c3        1 MOL     -0.199277
    145 C46         7.2280    3.3430   -1.4480 c3        1 MOL      0.009501
    146 C47         8.6720    3.4710   -0.8970 c3        1 MOL     -0.002468
    147 C48         9.4830    4.0910   -2.0460 c3        1 MOL     -0.032950
    148 N13        10.9610    4.1760   -1.7530 n4        1 MOL     -0.250852
    149 H67         6.0300    0.5290   -1.3370 hn        1 MOL      0.283759
    150 H68         7.5870    1.6630    0.9440 h1        1 MOL      0.093043
    151 H69         6.2850    3.5510    0.5010 hc        1 MOL      0.073760
    152 H70         5.2570    2.7090   -0.6850 hc        1 MOL      0.073760
    153 H71         6.8310    4.3210   -1.7000 hc        1 MOL      0.019453
    154 H72         7.2300    2.7510   -2.3640 hc        1 MOL      0.019453
    155 H73         9.0280    2.4830   -0.6040 hc        1 MOL      0.050428
    156 H74         8.7390    4.1650   -0.0630 hc        1 MOL      0.050428
    157 H75         9.0340    5.0390   -2.3210 hx        1 MOL      0.091661
    158 H76         9.3890    3.3290   -2.8200 hx        1 MOL      0.091661
    159 H77        11.0640    4.8450   -1.0000 hn        1 MOL      0.274636
    160 H78        11.3070    3.2790   -1.4370 hn        1 MOL      0.274636
    161 H79        11.5660    4.4770   -2.5000 hn        1 MOL      0.274636
    162 N14         4.8280    0.2310    1.5110 n         1 MOL     -0.032349
    163 C49         3.9700   -0.1650    2.6310 c3        1 MOL     -0.082271
    164 C50         4.4380   -1.5250    3.3040 c         1 MOL      0.340593
    165 O22         4.2680   -1.7710    4.5440 o         1 MOL     -0.531666
    166 C51         2.6960   -0.3730    1.8830 c3        1 MOL      0.118461
    167 C52         1.9270    0.9240    1.5470 c3        1 MOL     -0.164352
    168 C53         0.6580    0.7010    0.7490 c         1 MOL      0.578374
    169 O23         0.7320    0.1270   -0.3660 o         1 MOL     -0.571460
    170 O24        -0.5380    1.0320    0.9960 o         1 MOL     -0.571460
    171 H80         4.7530   -0.2560    0.6290 hn        1 MOL     -0.016737
    172 H81         3.8990    0.6240    3.3780 h1        1 MOL      0.137770
    173 H82         2.0640   -1.0850    2.4220 hc        1 MOL      0.067882
    174 H83         2.9390   -0.9430    0.9920 hc        1 MOL      0.067882
    175 H84         2.5200    1.6030    0.9370 hc        1 MOL      0.065038
    176 H85         1.6910    1.4660    2.4630 hc        1 MOL      0.065038
    177 N15         5.1510   -2.3880    2.6270 n         1 MOL     -0.010287
    178 C54         5.8680   -3.5730    3.1290 c3        1 MOL     -0.088329
    179 H86         5.8230   -4.3670    2.3840 h1        1 MOL      0.058451
    180 H87         6.9090   -3.3130    3.3210 h1        1 MOL      0.058451
    181 H88         5.4020   -3.9150    4.0530 h1        1 MOL      0.058451
    182 H89         5.3270   -2.1320    1.6700 hn        1 MOL      0.084931
    183 Ca1        -1.7800    0.4230   -1.1200 Ca        1 MOL      1.729759
    184 O25        -0.2390    2.0150   -2.6630 oh        1 MOL     -0.849324
    185 H90         0.2890    1.9990   -3.4510 ho        1 MOL      0.404800
    186 H91        -0.7930    2.7870   -2.7580 ho        1 MOL      0.404800
    187 O26        -1.3160   -1.0930   -3.3820 oh        1 MOL     -0.849324
    188 H92        -1.6830   -1.9430   -3.1240 ho        1 MOL      0.404800
    189 H93        -1.3170   -1.1130   -4.3390 ho        1 MOL      0.404800
@<TRIPOS>BOND
     1    1    2 1   
     2    1    4 1   
     3    1    5 1   
     4    1    6 1   
     5    2    3 2   
     6    2    7 1   
     7    7    8 1   
     8    7   15 1   
     9    8    9 1   
    10    8   11 1   
    11    8   16 1   
    12    9   10 2   
    13    9   19 1   
    14   11   12 1   
    15   11   17 1   
    16   11   18 1   
    17   12   13 1   
    18   12   14 1   
    19   19   20 1   
    20   19   28 1   
    21   20   21 1   
    22   20   23 1   
    23   20   29 1   
    24   21   22 2   
    25   21   41 1   
    26   23   24 1   
    27   23   30 1   
    28   23   31 1   
    29   24   25 1   
    30   24   32 1   
    31   24   33 1   
    32   25   26 1   
    33   25   34 1   
    34   25   35 1   
    35   26   27 1   
    36   26   36 1   
    37   26   37 1   
    38   27   38 1   
    39   27   39 1   
    40   27   40 1   
    41   41   42 1   
    42   41   49 1   
    43   42   43 1   
    44   42   45 1   
    45   42   50 1   
    46   43   44 2   
    47   43   53 1   
    48   45   46 1   
    49   45   51 1   
    50   45   52 1   
    51   46   47 1   
    52   46   48 1   
    53   53   54 1   
    54   53   57 1   
    55   54   55 1   
    56   54   58 1   
    57   54   59 1   
    58   55   56 2   
    59   55   60 1   
    60   60   61 1   
    61   60   68 1   
    62   61   62 1   
    63   61   64 1   
    64   61   69 1   
    65   62   63 2   
    66   62   72 1   
    67   64   65 1   
    68   64   70 1   
    69   64   71 1   
    70   65   66 1   
    71   65   67 1   
    72   72   73 1   
    73   72   76 1   
    74   73   74 1   
    75   73   77 1   
    76   73   78 1   
    77   74   75 2   
    78   74   79 1   
    79   79   80 1   
    80   79   86 1   
    81   80   81 1   
    82   80   83 1   
    83   80   87 1   
    84   81   82 2   
    85   81   93 1   
    86   83   84 1   
    87   83   85 1   
    88   83   88 1   
    89   84   90 1   
    90   84   91 1   
    91   84   92 1   
    92   85   89 1   
    93   93   94 1   
    94   93  101 1   
    95   94   95 1   
    96   94   97 1   
    97   94  102 1   
    98   95   96 2   
    99   95  112 1   
   100   97   98 1   
   101   97   99 1   
   102   97  103 1   
   103   98  100 1   
   104   98  104 1   
   105   98  105 1   
   106   99  106 1   
   107   99  107 1   
   108   99  108 1   
   109  100  109 1   
   110  100  110 1   
   111  100  111 1   
   112  112  113 1   
   113  112  119 1   
   114  113  114 1   
   115  113  116 1   
   116  113  120 1   
   117  114  115 2   
   118  114  126 1   
   119  116  117 1   
   120  116  118 1   
   121  116  121 1   
   122  117  123 1   
   123  117  124 1   
   124  117  125 1   
   125  118  122 1   
   126  126  127 1   
   127  126  133 1   
   128  127  128 1   
   129  127  130 1   
   130  127  134 1   
   131  128  129 2   
   132  128  140 1   
   133  130  131 1   
   134  130  132 1   
   135  130  135 1   
   136  131  137 1   
   137  131  138 1   
   138  131  139 1   
   139  132  136 1   
   140  140  141 1   
   141  140  149 1   
   142  141  142 1   
   143  141  144 1   
   144  141  150 1   
   145  142  143 2   
   146  142  162 1   
   147  144  145 1   
   148  144  151 1   
   149  144  152 1   
   150  145  146 1   
   151  145  153 1   
   152  145  154 1   
   153  146  147 1   
   154  146  155 1   
   155  146  156 1   
   156  147  148 1   
   157  147  157 1   
   158  147  158 1   
   159  148  159 1   
   160  148  160 1   
   161  148  161 1   
   162  162  163 1   
   163  162  171 1   
   164  163  164 1   
   165  163  166 1   
   166  163  172 1   
   167  164  165 2   
   168  164  177 1   
   169  166  167 1   
   170  166  173 1   
   171  166  174 1   
   172  167  168 1   
   173  167  175 1   
   174  167  176 1   
   175  168  169 1   
   176  168  170 1   
   177  177  178 1   
   178  177  182 1   
   179  178  179 1   
   180  178  180 1   
   181  178  181 1   
   182  184  185 1   
   183  184  186 1   
   184  187  188 1   
   185  187  189 1   
@<TRIPOS>SUBSTRUCTURE
     1 MOL         1 TEMP              0 ****  ****    0 ROOT
