@<TRIPOS>MOLECULE
MOL
  175   173     1     0     0
SMALL
resp


@<TRIPOS>ATOM
      1 C1          0.4810    4.9090    4.6950 c3        1 MOL     -0.482670
      2 C2         -0.1160    4.5490    3.3580 c         1 MOL      0.800375
      3 O1          0.5620    4.3700    2.3960 o         1 MOL     -0.564212
      4 H1         -0.3040    5.2730    5.3570 hc        1 MOL      0.115308
      5 H2          0.9460    4.0260    5.1360 hc        1 MOL      0.115308
      6 H3          1.2330    5.6870    4.5610 hc        1 MOL      0.115308
      7 N1         -1.4470    4.5280    3.2760 n         1 MOL     -0.655455
      8 C3         -2.1730    3.9460    2.2330 c3        1 MOL      0.176685
      9 C4         -2.7420    5.0220    1.3360 c         1 MOL      0.747274
     10 O2         -3.1970    6.1010    1.7170 o         1 MOL     -0.625414
     11 C5         -3.3870    3.1680    2.7750 c3        1 MOL     -0.275349
     12 C6         -4.0910    2.3610    1.7270 c         1 MOL      0.711682
     13 O3         -5.3030    2.1390    1.9580 o         1 MOL     -0.683945
     14 O4         -3.5840    2.1410    0.6250 o         1 MOL     -0.683945
     15 H4         -2.1010    4.8870    3.9620 hn        1 MOL      0.301307
     16 H5         -1.4770    3.3640    1.6300 h1        1 MOL      0.028162
     17 H6         -4.1090    3.8610    3.2060 hc        1 MOL      0.054209
     18 H7         -3.0770    2.5040    3.5880 hc        1 MOL      0.054209
     19 N2         -2.7420    4.6970    0.0470 n         1 MOL     -0.737441
     20 C7         -3.1900    5.6390   -1.1200 c3        1 MOL      0.223734
     21 C8         -4.0040    4.8900   -2.1600 c         1 MOL      0.534900
     22 O5         -3.9930    5.3720   -3.3200 o         1 MOL     -0.579693
     23 C9         -1.9880    6.4720   -1.5800 c3        1 MOL     -0.108213
     24 H8         -2.7710    3.7080   -0.1550 hn        1 MOL      0.414246
     25 H9         -3.9200    6.3730   -0.7980 h1        1 MOL      0.028631
     26 H10        -1.0760    5.9910   -1.9250 hc        1 MOL      0.030255
     27 H11        -2.2310    7.1070   -2.4270 hc        1 MOL      0.030255
     28 H12        -1.6720    7.1520   -0.7790 hc        1 MOL      0.030255
     29 N3         -4.6290    3.7520   -1.8750 n         1 MOL     -0.513938
     30 C10        -5.3900    2.9800   -2.8810 c3        1 MOL      0.106062
     31 C11        -6.4810    1.9990   -2.3420 c         1 MOL      0.334177
     32 O6         -7.4820    1.7660   -3.1020 o         1 MOL     -0.541604
     33 C12        -4.3530    2.1620   -3.6100 c3        1 MOL     -0.014592
     34 C13        -3.4110    1.2510   -2.8250 c         1 MOL      0.657674
     35 O7         -3.9760    0.4140   -2.0590 o         1 MOL     -0.689038
     36 O8         -2.1650    1.3750   -2.8660 o         1 MOL     -0.689038
     37 H13        -4.4030    3.3330   -0.9820 hn        1 MOL      0.293788
     38 H14        -5.8530    3.6280   -3.6270 h1        1 MOL      0.079811
     39 H15        -3.7150    2.7000   -4.3080 hc        1 MOL      0.004526
     40 H16        -4.8920    1.5460   -4.3150 hc        1 MOL      0.004526
     41 N4         -6.4390    1.4560   -1.1090 n         1 MOL     -0.063512
     42 C14        -7.4710    0.5660   -0.5600 c3        1 MOL     -0.266547
     43 C15        -7.3520   -0.8730   -1.0990 c         1 MOL      0.470132
     44 O9         -8.4180   -1.5910   -1.1450 o         1 MOL     -0.590431
     45 H17        -5.6540    1.6330   -0.5080 hn        1 MOL      0.099204
     46 H18        -8.4720    0.9660   -0.7400 h1        1 MOL      0.131726
     47 H19        -7.3080    0.4760    0.5160 h1        1 MOL      0.131726
     48 N5         -6.1650   -1.3020   -1.5890 n         1 MOL     -0.151952
     49 C16        -5.9830   -2.6810   -2.0480 c3        1 MOL     -0.033772
     50 C17        -5.8890   -3.7680   -0.9930 c         1 MOL      0.415220
     51 O10        -5.8050   -4.9690   -1.2700 o         1 MOL     -0.518422
     52 C18        -4.7980   -2.8960   -3.0230 c3        1 MOL     -0.136346
     53 C19        -3.4080   -2.6190   -2.4440 c         1 MOL      0.586330
     54 N6         -2.3490   -2.8990   -3.1330 n         1 MOL     -0.621671
     55 O11        -3.1800   -2.1920   -1.2800 o         1 MOL     -0.614533
     56 H20        -5.3830   -0.6590   -1.6720 hn        1 MOL      0.199536
     57 H21        -6.7900   -3.0400   -2.6890 h1        1 MOL      0.101269
     58 H22        -4.8650   -2.1810   -3.8440 hc        1 MOL      0.047187
     59 H23        -4.8220   -3.9300   -3.3560 hc        1 MOL      0.047187
     60 H24        -2.3960   -3.4140   -4.0030 hn        1 MOL      0.318053
     61 H25        -1.4650   -2.7660   -2.6500 hn        1 MOL      0.318053
     62 N7         -5.9140   -3.3870    0.2660 n         1 MOL     -0.221413
     63 C20        -5.9730   -4.2490    1.4290 c3        1 MOL     -0.156588
     64 C21        -4.6140   -4.5650    2.1250 c         1 MOL      0.482875
     65 O12        -4.5470   -5.3990    3.0410 o         1 MOL     -0.580201
     66 H26        -6.0430   -2.3940    0.3700 hn        1 MOL      0.205025
     67 H27        -6.4210   -5.2120    1.1920 h1        1 MOL      0.097669
     68 H28        -6.5720   -3.7960    2.2220 h1        1 MOL      0.097669
     69 N8         -3.5570   -3.9980    1.5300 n         1 MOL     -0.282759
     70 C22        -2.2090   -4.2850    1.9050 c3        1 MOL      0.000808
     71 C23        -1.3100   -3.0440    1.9640 c         1 MOL      0.219336
     72 O13        -1.4440   -2.1890    1.1120 o         1 MOL     -0.304056
     73 C24        -1.5110   -5.2230    0.8940 c3        1 MOL      0.378154
     74 C25        -1.8580   -6.6810    1.0550 c3        1 MOL     -0.604229
     75 O14        -1.8810   -4.9090   -0.4040 oh        1 MOL     -0.539544
     76 H29        -3.7510   -3.4090    0.7370 hn        1 MOL      0.285743
     77 H30        -2.0420   -4.6440    2.9160 h1        1 MOL      0.067180
     78 H31        -0.4350   -5.0550    0.8890 h1        1 MOL      0.033497
     79 H32        -1.4230   -4.1060   -0.6560 ho        1 MOL      0.349483
     80 H33        -1.3850   -7.0650    1.9570 hc        1 MOL      0.160718
     81 H34        -2.9420   -6.7940    1.1510 hc        1 MOL      0.160718
     82 H35        -1.7140   -7.2790    0.1600 hc        1 MOL      0.160718
     83 N9         -0.3140   -3.0170    2.8860 n         1 MOL     -0.350966
     84 C26         0.9300   -2.2050    2.6320 c3        1 MOL      0.013805
     85 C27         1.7170   -2.7440    1.3640 c         1 MOL      0.227307
     86 O15         2.1570   -3.8840    1.3080 o         1 MOL     -0.522862
     87 C28         1.7700   -2.0200    3.9100 c3        1 MOL      0.119182
     88 C29         1.0150   -1.1620    4.9640 c3        1 MOL      0.002132
     89 C30         3.2220   -1.6190    3.7030 c3        1 MOL     -0.058975
     90 C31         1.6790   -1.0190    6.2940 c3        1 MOL     -0.191535
     91 H36        -0.2470   -3.7350    3.5910 hn        1 MOL      0.278692
     92 H37         0.6660   -1.2220    2.2520 h1        1 MOL     -0.035126
     93 H38         1.8570   -3.0300    4.3320 hc        1 MOL     -0.014609
     94 H39         0.0220   -1.6370    5.0010 hc        1 MOL      0.010789
     95 H40         0.8190   -0.1870    4.5200 hc        1 MOL      0.010789
     96 H41         3.8420   -1.9840    4.5190 hc        1 MOL      0.018630
     97 H42         3.6910   -2.0360    2.8180 hc        1 MOL      0.018630
     98 H43         3.1930   -0.5290    3.7320 hc        1 MOL      0.018630
     99 H44         2.5650   -0.4000    6.2390 hc        1 MOL      0.044832
    100 H45         1.0520   -0.4360    6.9700 hc        1 MOL      0.044832
    101 H46         1.8110   -1.9810    6.7900 hc        1 MOL      0.044832
    102 N10         1.8040   -1.8920    0.3380 n         1 MOL     -0.030269
    103 C32         2.6710   -2.0980   -0.7900 c3        1 MOL      0.255271
    104 C33         4.1270   -1.6010   -0.5590 c         1 MOL      0.409426
    105 O16         4.2810   -0.8690    0.3910 o         1 MOL     -0.300879
    106 C34         2.0040   -1.4790   -2.0420 c3        1 MOL     -0.284348
    107 C35         0.5830   -2.0630   -2.1970 c         1 MOL      0.770287
    108 O17        -0.3790   -1.3680   -1.8390 o         1 MOL     -0.702686
    109 O18         0.4110   -3.2290   -2.6110 o         1 MOL     -0.702686
    110 H47         1.2700   -1.0310    0.3780 hn        1 MOL      0.111285
    111 H48         2.7600   -3.1510   -1.0440 h1        1 MOL     -0.000896
    112 H49         2.6500   -1.7150   -2.8940 hc        1 MOL      0.037468
    113 H50         1.9430   -0.3930   -1.9930 hc        1 MOL      0.037468
    114 N11         5.0710   -1.9380   -1.3750 n         1 MOL     -0.719789
    115 C36         6.4610   -1.5680   -1.1350 c3        1 MOL      0.532007
    116 C37         6.7340   -0.0210   -1.0970 c         1 MOL      0.234318
    117 O19         7.4070    0.3160   -0.1640 o         1 MOL     -0.436312
    118 C38         7.4180   -2.2830   -2.1760 c3        1 MOL     -0.239643
    119 C39         8.8450   -1.9320   -2.1170 ca        1 MOL      0.200078
    120 C40         9.5560   -1.7850   -3.3130 ca        1 MOL     -0.207069
    121 C41         9.5100   -1.9210   -0.8940 ca        1 MOL     -0.207069
    122 C42        10.8790   -1.4060   -3.2190 ca        1 MOL     -0.094330
    123 C43        10.8060   -1.5870   -0.8370 ca        1 MOL     -0.094330
    124 C44        11.5580   -1.3550   -1.9650 ca        1 MOL     -0.117226
    125 H51         4.9050   -2.4730   -2.2100 hn        1 MOL      0.355944
    126 H52         6.7380   -1.9410   -0.1490 h1        1 MOL      0.011472
    127 H53         7.0810   -1.8530   -3.1170 hc        1 MOL      0.042242
    128 H54         7.2560   -3.3600   -2.1980 hc        1 MOL      0.042242
    129 H55         9.0800   -1.8410   -4.2840 ha        1 MOL      0.124378
    130 H56         8.9660   -2.2090   -0.0030 ha        1 MOL      0.124378
    131 H57        11.5060   -1.2810   -4.0860 ha        1 MOL      0.100028
    132 H58        11.3230   -1.4920    0.1030 ha        1 MOL      0.100028
    133 H59        12.6070   -1.1390   -1.9790 ha        1 MOL      0.099832
    134 N12         6.1850    0.8660   -1.9960 n         1 MOL     -0.050174
    135 C45         6.3530    2.2850   -1.7900 c3        1 MOL     -0.162364
    136 C46         5.6810    2.8500   -0.5030 c         1 MOL      0.367727
    137 O20         6.0720    3.9210   -0.0910 o         1 MOL     -0.523098
    138 C47         5.6780    2.8980   -3.0400 c3        1 MOL      0.126472
    139 C48         5.4970    1.7450   -4.0920 c3        1 MOL     -0.355905
    140 C49         5.2970    0.6110   -3.1180 c3        1 MOL     -0.066687
    141 H60         7.4330    2.4040   -1.8320 h1        1 MOL      0.125719
    142 H61         4.7380    3.4100   -2.8200 hc        1 MOL      0.025380
    143 H62         6.3400    3.6240   -3.5090 hc        1 MOL      0.025380
    144 H63         4.5510    1.8730   -4.6170 hc        1 MOL      0.125184
    145 H64         6.4340    1.5400   -4.6110 hc        1 MOL      0.125184
    146 H65         4.2470    0.5630   -2.8270 h1        1 MOL      0.081459
    147 H66         5.5380   -0.3720   -3.5300 h1        1 MOL      0.081459
    148 N13         4.7840    2.1210    0.1660 n         1 MOL     -0.107464
    149 C50         4.1220    2.6020    1.3790 c3        1 MOL     -0.034326
    150 C51         4.8790    1.9930    2.6050 c         1 MOL      0.479477
    151 O21         4.9770    2.5930    3.6450 o         1 MOL     -0.577127
    152 C52         2.6820    2.0640    1.4030 c3        1 MOL     -0.006731
    153 C53         1.7800    2.4650    0.1830 c3        1 MOL     -0.409227
    154 C54         0.4070    1.7830    0.3310 c         1 MOL      0.694137
    155 O22         0.3290    0.5770    0.7140 o         1 MOL     -0.677938
    156 O23        -0.6330    2.2330   -0.2210 o         1 MOL     -0.677938
    157 H67         4.6080    1.1810   -0.1650 hn        1 MOL      0.064569
    158 H68         4.0660    3.6950    1.4170 h1        1 MOL      0.093466
    159 H69         2.3930    2.4000    2.3930 hc        1 MOL      0.056331
    160 H70         2.8320    0.9830    1.4210 hc        1 MOL      0.056331
    161 H71         2.2120    1.9150   -0.6490 hc        1 MOL      0.173444
    162 H72         1.7460    3.5510    0.1290 hc        1 MOL      0.173444
    163 N14         5.3560    0.7650    2.4670 n         1 MOL     -0.060112
    164 C55         6.4030    0.2050    3.3860 c3        1 MOL     -0.062021
    165 H73         7.1940   -0.2570    2.7950 h1        1 MOL      0.039287
    166 H74         6.8240    1.0090    3.9900 h1        1 MOL      0.039287
    167 H75         5.9520   -0.5430    4.0370 h1        1 MOL      0.039287
    168 H76         5.0320    0.2580    1.6630 hn        1 MOL     -0.002490
    169 Ca1        -2.0700    0.0050   -0.3230 Ca        1 MOL      1.667780
    170 O24        -4.3630   -1.0040    1.2390 oh        1 MOL     -0.766199
    171 H77        -5.2920   -1.1220    1.4230 ho        1 MOL      0.372051
    172 H78        -3.9630   -0.8540    2.0940 ho        1 MOL      0.372051
    173 O25        -1.7070    0.2770    2.3930 oh        1 MOL     -0.766199
    174 H79        -1.5270    0.6960    3.2240 ho        1 MOL      0.372051
    175 H80        -0.8820    0.3360    1.9100 ho        1 MOL      0.372051
@<TRIPOS>BOND
     1    1    2 1   
     2    1    4 1   
     3    1    5 1   
     4    1    6 1   
     5    2    3 2   
     6    2    7 1   
     7    7    8 1   
     8    7   15 1   
     9    8    9 1   
    10    8   11 1   
    11    8   16 1   
    12    9   10 2   
    13    9   19 1   
    14   11   12 1   
    15   11   17 1   
    16   11   18 1   
    17   12   13 1   
    18   12   14 1   
    19   19   20 1   
    20   19   24 1   
    21   20   21 1   
    22   20   23 1   
    23   20   25 1   
    24   21   22 2   
    25   21   29 1   
    26   23   26 1   
    27   23   27 1   
    28   23   28 1   
    29   29   30 1   
    30   29   37 1   
    31   30   31 1   
    32   30   33 1   
    33   30   38 1   
    34   31   32 2   
    35   31   41 1   
    36   33   34 1   
    37   33   39 1   
    38   33   40 1   
    39   34   35 1   
    40   34   36 1   
    41   41   42 1   
    42   41   45 1   
    43   42   43 1   
    44   42   46 1   
    45   42   47 1   
    46   43   44 2   
    47   43   48 1   
    48   48   49 1   
    49   48   56 1   
    50   49   50 1   
    51   49   52 1   
    52   49   57 1   
    53   50   51 2   
    54   50   62 1   
    55   52   53 1   
    56   52   58 1   
    57   52   59 1   
    58   53   54 1   
    59   53   55 2   
    60   54   60 1   
    61   54   61 1   
    62   62   63 1   
    63   62   66 1   
    64   63   64 1   
    65   63   67 1   
    66   63   68 1   
    67   64   65 2   
    68   64   69 1   
    69   69   70 1   
    70   69   76 1   
    71   70   71 1   
    72   70   73 1   
    73   70   77 1   
    74   71   72 2   
    75   71   83 1   
    76   73   74 1   
    77   73   75 1   
    78   73   78 1   
    79   74   80 1   
    80   74   81 1   
    81   74   82 1   
    82   75   79 1   
    83   83   84 1   
    84   83   91 1   
    85   84   85 1   
    86   84   87 1   
    87   84   92 1   
    88   85   86 2   
    89   85  102 1   
    90   87   88 1   
    91   87   89 1   
    92   87   93 1   
    93   88   90 1   
    94   88   94 1   
    95   88   95 1   
    96   89   96 1   
    97   89   97 1   
    98   89   98 1   
    99   90   99 1   
   100   90  100 1   
   101   90  101 1   
   102  102  103 1   
   103  102  110 1   
   104  103  104 1   
   105  103  106 1   
   106  103  111 1   
   107  104  105 2   
   108  104  114 1   
   109  106  107 1   
   110  106  112 1   
   111  106  113 1   
   112  107  108 1   
   113  107  109 1   
   114  114  115 1   
   115  114  125 1   
   116  115  116 1   
   117  115  118 1   
   118  115  126 1   
   119  116  117 2   
   120  116  134 1   
   121  118  119 1   
   122  118  127 1   
   123  118  128 1   
   124  119  120 ar  
   125  119  121 ar  
   126  120  122 ar  
   127  120  129 1   
   128  121  123 ar  
   129  121  130 1   
   130  122  124 ar  
   131  122  131 1   
   132  123  124 ar  
   133  123  132 1   
   134  124  133 1   
   135  134  135 1   
   136  134  140 1   
   137  135  136 1   
   138  135  138 1   
   139  135  141 1   
   140  136  137 2   
   141  136  148 1   
   142  138  139 1   
   143  138  142 1   
   144  138  143 1   
   145  139  140 1   
   146  139  144 1   
   147  139  145 1   
   148  140  146 1   
   149  140  147 1   
   150  148  149 1   
   151  148  157 1   
   152  149  150 1   
   153  149  152 1   
   154  149  158 1   
   155  150  151 2   
   156  150  163 1   
   157  152  153 1   
   158  152  159 1   
   159  152  160 1   
   160  153  154 1   
   161  153  161 1   
   162  153  162 1   
   163  154  155 1   
   164  154  156 1   
   165  163  164 1   
   166  163  168 1   
   167  164  165 1   
   168  164  166 1   
   169  164  167 1   
   170  170  171 1   
   171  170  172 1   
   172  173  174 1   
   173  173  175 1   
@<TRIPOS>SUBSTRUCTURE
     1 MOL         1 TEMP              0 ****  ****    0 ROOT
