@<TRIPOS>MOLECULE
MOL
  189   185     1     0     0
SMALL
resp


@<TRIPOS>ATOM
      1 C1         -0.6500    1.6410    6.4240 c3        1 MOL     -0.310510
      2 C2         -0.7870    1.6230    4.8730 c         1 MOL      0.754368
      3 O1          0.1550    1.9320    4.1220 o         1 MOL     -0.640870
      4 H1         -1.2800    2.4300    6.8350 hc        1 MOL      0.073982
      5 H2         -0.9650    0.6780    6.8290 hc        1 MOL      0.073982
      6 H3          0.3880    1.8270    6.6960 hc        1 MOL      0.073982
      7 N1         -1.9820    1.2040    4.4080 n         1 MOL     -0.568532
      8 C3         -2.4170    1.2770    3.0670 c3        1 MOL      0.075282
      9 C4         -2.7090    2.7400    2.7200 c         1 MOL      0.438680
     10 O2         -3.5970    3.3240    3.2880 o         1 MOL     -0.546420
     11 C5         -3.6360    0.3660    2.9170 c3        1 MOL     -0.052344
     12 C6         -4.2270    0.3900    1.5120 c         1 MOL      0.891245
     13 O3         -3.4100    0.6120    0.5680 o         1 MOL     -0.774206
     14 O4         -5.4270    0.1640    1.3150 o         1 MOL     -0.774206
     15 H4         -2.6320    0.8740    5.1070 hn        1 MOL      0.309728
     16 H5         -1.6570    1.0370    2.3170 h1        1 MOL      0.025763
     17 H6         -4.4880    0.6160    3.5660 hc        1 MOL      0.005196
     18 H7         -3.4480   -0.6750    3.1650 hc        1 MOL      0.005196
     19 N2         -1.9560    3.2320    1.7520 n         1 MOL     -0.047489
     20 C7         -1.6470    4.5710    1.5750 c3        1 MOL     -0.075571
     21 C8         -2.4840    5.1050    0.4340 c         1 MOL      0.471427
     22 O5         -2.7890    6.3100    0.5220 o         1 MOL     -0.601385
     23 C9         -0.1370    4.6650    1.3440 c3        1 MOL     -0.100001
     24 C10         0.4560    6.1010    1.3870 c3        1 MOL     -0.078925
     25 C11         1.9140    6.0490    0.8370 c3        1 MOL      0.137636
     26 C12         2.6200    7.3020    1.0880 c3        1 MOL     -0.062936
     27 N3          4.1410    7.1800    1.0530 n4        1 MOL     -0.246694
     28 H8         -1.4050    2.5790    1.2120 hn        1 MOL      0.139958
     29 H9         -1.9450    5.1260    2.4650 h1        1 MOL      0.089335
     30 H10         0.0870    4.1960    0.3800 hc        1 MOL      0.070967
     31 H11         0.5040    4.1450    2.0510 hc        1 MOL      0.070967
     32 H12         0.4550    6.5150    2.3910 hc        1 MOL      0.053864
     33 H13        -0.0620    6.8690    0.8120 hc        1 MOL      0.053864
     34 H14         1.9300    5.9190   -0.2470 hc        1 MOL     -0.007409
     35 H15         2.5420    5.2690    1.2530 hc        1 MOL     -0.007409
     36 H16         2.3400    7.6420    2.0790 hx        1 MOL      0.087562
     37 H17         2.2650    7.9850    0.3210 hx        1 MOL      0.087562
     38 H18         4.6720    8.0340    1.2060 hn        1 MOL      0.294905
     39 H19         4.5260    6.4700    1.6560 hn        1 MOL      0.294905
     40 H20         4.3450    6.8930    0.1090 hn        1 MOL      0.294905
     41 N4         -2.8200    4.3390   -0.5510 n         1 MOL     -0.294007
     42 C13        -3.5430    4.7400   -1.8070 c3        1 MOL      0.145358
     43 C14        -4.9700    4.1940   -1.7590 c         1 MOL      0.384947
     44 O6         -5.7080    4.4720   -2.6660 o         1 MOL     -0.508054
     45 C15        -2.6190    4.3400   -3.0210 c3        1 MOL     -0.151477
     46 C16        -2.3560    2.8830   -3.1810 c         1 MOL      0.806673
     47 O7         -2.6630    2.0590   -2.2300 o         1 MOL     -0.713818
     48 O8         -1.7060    2.4670   -4.1740 o         1 MOL     -0.713818
     49 H21        -2.5480    3.3680   -0.5210 hn        1 MOL      0.151408
     50 H22        -3.6470    5.8160   -1.9290 h1        1 MOL      0.048450
     51 H23        -1.7090    4.9300   -2.9970 hc        1 MOL      0.032145
     52 H24        -3.0870    4.6400   -3.9530 hc        1 MOL      0.032145
     53 N5         -5.3120    3.3390   -0.8160 n         1 MOL     -0.079499
     54 C17        -6.6410    2.7350   -0.5840 c3        1 MOL     -0.323018
     55 C18        -7.0330    1.6180   -1.5140 c         1 MOL      0.780255
     56 O9         -7.4730    1.8590   -2.6360 o         1 MOL     -0.541738
     57 H25        -4.5520    3.0350   -0.2260 hn        1 MOL      0.115644
     58 H26        -7.4740    3.4280   -0.5670 h1        1 MOL      0.113298
     59 H27        -6.5860    2.3040    0.4170 h1        1 MOL      0.113298
     60 N6         -6.7910    0.3830   -1.0380 n         1 MOL     -0.703498
     61 C19        -7.1190   -0.7710   -1.7600 c3        1 MOL      0.004900
     62 C20        -7.3180   -2.0320   -0.9080 c         1 MOL      0.480659
     63 O10        -7.6540   -3.0780   -1.4830 o         1 MOL     -0.545042
     64 C21        -6.0260   -1.1180   -2.7650 c3        1 MOL      0.015520
     65 C22        -4.5790   -1.1590   -2.3110 c         1 MOL      0.687361
     66 O11        -4.1910   -1.6490   -1.2420 o         1 MOL     -0.706083
     67 O12        -3.7760   -0.6900   -3.1460 o         1 MOL     -0.706083
     68 H28        -6.0550    0.3630   -0.3540 hn        1 MOL      0.377458
     69 H29        -8.0250   -0.6510   -2.3600 h1        1 MOL      0.096188
     70 H30        -6.0260   -0.4400   -3.6150 hc        1 MOL      0.025515
     71 H31        -6.2710   -2.0400   -3.2880 hc        1 MOL      0.025515
     72 N7         -7.1410   -1.9740    0.4130 n         1 MOL     -0.293436
     73 C23        -7.1720   -3.2260    1.2350 c3        1 MOL     -0.284047
     74 C24        -5.8630   -4.0760    1.1890 c         1 MOL      0.592091
     75 O13        -5.8310   -5.1730    1.6650 o         1 MOL     -0.566005
     76 H32        -6.9020   -1.0730    0.8140 hn        1 MOL      0.298075
     77 H33        -7.9680   -3.8690    0.8650 h1        1 MOL      0.139960
     78 H34        -7.2480   -3.0180    2.3000 h1        1 MOL      0.139960
     79 N8         -4.7330   -3.4970    0.7280 n         1 MOL     -0.278738
     80 C25        -3.4880   -4.2550    0.4690 c3        1 MOL     -0.229437
     81 C26        -2.1400   -3.5020    0.5750 c         1 MOL      0.683702
     82 O14        -2.0800   -2.3080    0.2900 o         1 MOL     -0.676643
     83 C27        -3.4800   -5.0250   -0.9110 c3        1 MOL      0.533316
     84 C28        -4.7020   -5.8720   -1.1860 c3        1 MOL     -0.293185
     85 O15        -3.4080   -4.0520   -1.9610 oh        1 MOL     -0.677662
     86 H35        -4.7650   -2.5410    0.3830 hn        1 MOL      0.226195
     87 H36        -3.4080   -5.0800    1.1760 h1        1 MOL      0.076134
     88 H37        -2.6370   -5.7120   -0.9450 h1        1 MOL     -0.051861
     89 H38        -3.5540   -3.1980   -1.5410 ho        1 MOL      0.410224
     90 H39        -4.6680   -6.7220   -0.5050 hc        1 MOL      0.073813
     91 H40        -5.6810   -5.4150   -1.0890 hc        1 MOL      0.073813
     92 H41        -4.6700   -6.3220   -2.1720 hc        1 MOL      0.073813
     93 N9         -1.0330   -4.2120    0.8900 n         1 MOL     -0.569046
     94 C29         0.2410   -3.5410    1.1290 c3        1 MOL      0.136573
     95 C30         1.3090   -3.9640    0.0660 c         1 MOL      0.468176
     96 O16         1.7820   -5.1180   -0.0230 o         1 MOL     -0.550820
     97 C31         0.6770   -3.7030    2.6340 c3        1 MOL      0.044094
     98 C32        -0.3760   -3.1200    3.6060 c3        1 MOL      0.146902
     99 C33         2.1190   -3.2000    2.9230 c3        1 MOL     -0.256427
    100 C34         0.2700   -2.8280    4.9920 c3        1 MOL     -0.337604
    101 H42        -1.0580   -5.1920    1.1430 hn        1 MOL      0.305724
    102 H43         0.1020   -2.4770    0.9440 h1        1 MOL      0.015417
    103 H44         0.6450   -4.7810    2.8330 hc        1 MOL      0.003364
    104 H45        -1.2400   -3.7710    3.7340 hc        1 MOL     -0.009679
    105 H46        -0.7670   -2.2080    3.1500 hc        1 MOL     -0.009679
    106 H47         2.7940   -3.5730    2.1460 hc        1 MOL      0.051115
    107 H48         2.2090   -2.1100    2.8500 hc        1 MOL      0.051115
    108 H49         2.4850   -3.5760    3.8740 hc        1 MOL      0.051115
    109 H50        -0.4890   -2.4200    5.6580 hc        1 MOL      0.085601
    110 H51         0.6940   -3.7620    5.3620 hc        1 MOL      0.085601
    111 H52         1.0020   -2.0240    4.8920 hc        1 MOL      0.085601
    112 N10         1.7800   -2.9220   -0.6050 n         1 MOL     -0.205084
    113 C35         2.9730   -2.9330   -1.4350 c3        1 MOL     -0.118225
    114 C36         4.1980   -3.0060   -0.5250 c         1 MOL      0.256677
    115 O17         4.2600   -2.4700    0.5630 o         1 MOL     -0.209172
    116 C37         3.0900   -1.8700   -2.4610 c3        1 MOL      0.350469
    117 C38         2.2510   -2.0420   -3.6730 c3        1 MOL     -0.596643
    118 O18         2.9560   -0.5610   -2.0090 oh        1 MOL     -0.614075
    119 H53         1.4510   -1.9730   -0.5180 hn        1 MOL      0.292495
    120 H54         2.9380   -3.8600   -2.0050 h1        1 MOL      0.085967
    121 H55         4.1330   -1.9770   -2.7920 h1        1 MOL      0.012390
    122 H56         2.0440   -0.3670   -1.7870 ho        1 MOL      0.396712
    123 H57         2.1920   -1.1360   -4.2740 hc        1 MOL      0.162240
    124 H58         2.6050   -2.9530   -4.1720 hc        1 MOL      0.162240
    125 H59         1.2360   -2.3050   -3.4030 hc        1 MOL      0.162240
    126 N11         5.3340   -3.3470   -1.1470 n         1 MOL     -0.257543
    127 C39         6.6410   -3.2180   -0.5640 c3        1 MOL     -0.049563
    128 C40         7.0360   -1.8160   -0.3590 c         1 MOL      0.363880
    129 O19         7.7020   -1.5050    0.5790 o         1 MOL     -0.488568
    130 C41         7.8300   -3.7880   -1.2780 c3        1 MOL      0.250307
    131 C42         7.8510   -5.3450   -1.3390 c3        1 MOL     -0.453040
    132 O20         7.8940   -3.3210   -2.6100 oh        1 MOL     -0.638865
    133 H60         5.2120   -3.6700   -2.0930 hn        1 MOL      0.260094
    134 H61         6.6460   -3.6430    0.4450 h1        1 MOL      0.141592
    135 H62         8.7630   -3.5430   -0.7800 h1        1 MOL      0.064023
    136 H63         8.6980   -3.7270   -2.9410 ho        1 MOL      0.426026
    137 H64         7.0070   -5.6690   -1.9360 hc        1 MOL      0.127123
    138 H65         8.7870   -5.6130   -1.8320 hc        1 MOL      0.127123
    139 H66         7.5960   -5.7340   -0.3510 hc        1 MOL      0.127123
    140 N12         6.6080   -0.8100   -1.1830 n         1 MOL     -0.277676
    141 C43         6.7810    0.6020   -1.0100 c3        1 MOL      0.005228
    142 C44         5.9880    1.0620    0.2940 c         1 MOL      0.337404
    143 O21         6.2850    2.0740    0.9310 o         1 MOL     -0.549886
    144 C45         6.2520    1.2810   -2.2770 c3        1 MOL     -0.040360
    145 C46         6.2010    2.8370   -2.3080 c3        1 MOL      0.005267
    146 C47         7.5380    3.4800   -1.9800 c3        1 MOL      0.055718
    147 C48         8.6850    3.0530   -2.9590 c3        1 MOL      0.022203
    148 N13         9.9010    3.8800   -2.7820 n4        1 MOL     -0.228462
    149 H67         6.2170   -1.1030   -2.0720 hn        1 MOL      0.222553
    150 H68         7.7960    0.8400   -0.7240 h1        1 MOL      0.074835
    151 H69         5.2360    0.9300   -2.4850 hc        1 MOL      0.014291
    152 H70         6.9440    0.8980   -3.0240 hc        1 MOL      0.014291
    153 H71         5.5310    3.1160   -1.5020 hc        1 MOL      0.023132
    154 H72         5.8740    3.2660   -3.2530 hc        1 MOL      0.023132
    155 H73         7.8540    3.2690   -0.9600 hc        1 MOL     -0.018014
    156 H74         7.3870    4.5590   -1.9950 hc        1 MOL     -0.018014
    157 H75         8.2090    3.1240   -3.9340 hx        1 MOL      0.071438
    158 H76         8.9290    2.0100   -2.7280 hx        1 MOL      0.071438
    159 H77         9.7530    4.7950   -3.1770 hn        1 MOL      0.269721
    160 H78        10.0560    4.0780   -1.8030 hn        1 MOL      0.269721
    161 H79        10.7050    3.5180   -3.2680 hn        1 MOL      0.269721
    162 N14         4.8900    0.3830    0.5890 n         1 MOL      0.034085
    163 C49         4.1110    0.6050    1.7860 c3        1 MOL     -0.276651
    164 C50         4.5440   -0.2200    3.0630 c         1 MOL      0.442301
    165 O22         4.2700    0.2200    4.1940 o         1 MOL     -0.516998
    166 C51         2.6340    0.3450    1.3720 c3        1 MOL      0.255785
    167 C52         2.0350    1.2940    0.4470 c3        1 MOL     -0.242019
    168 C53         0.6530    0.8260   -0.0880 c         1 MOL      0.626144
    169 O23         0.5650   -0.3400   -0.5580 o         1 MOL     -0.634219
    170 O24        -0.3130    1.6130   -0.0540 o         1 MOL     -0.634219
    171 H80         4.6160   -0.3640   -0.0450 hn        1 MOL      0.267890
    172 H81         4.1450    1.6820    1.9570 h1        1 MOL      0.120983
    173 H82         2.0480    0.2520    2.2840 hc        1 MOL      0.014349
    174 H83         2.5170   -0.6370    0.9160 hc        1 MOL      0.014349
    175 H84         2.7690    1.4370   -0.3450 hc        1 MOL      0.001905
    176 H85         1.8850    2.2410    0.9610 hc        1 MOL      0.001905
    177 N15         5.2280   -1.3970    2.8590 n         1 MOL     -0.019458
    178 C54         5.7910   -2.2150    3.8600 c3        1 MOL     -0.375190
    179 H86         6.2080   -3.1120    3.4030 h1        1 MOL      0.127477
    180 H87         6.5820   -1.6680    4.3740 h1        1 MOL      0.127477
    181 H88         5.0190   -2.4970    4.5760 h1        1 MOL      0.127477
    182 H89         5.4450   -1.6720    1.9150 hn        1 MOL      0.007491
    183 Ca1        -1.9190   -0.2540   -1.2920 Ca        1 MOL      1.744236
    184 O25        -0.3170    0.3250   -3.4210 oh        1 MOL     -0.918989
    185 H90         0.1290   -0.0290   -4.1940 ho        1 MOL      0.417269
    186 H91        -0.6550    1.1770   -3.6950 ho        1 MOL      0.417269
    187 O26        -1.0960   -2.5810   -2.6470 oh        1 MOL     -0.918989
    188 H92        -1.0280   -2.4800   -3.5990 ho        1 MOL      0.417269
    189 H93        -1.8270   -3.1830   -2.5180 ho        1 MOL      0.417269
@<TRIPOS>BOND
     1    1    2 1   
     2    1    4 1   
     3    1    5 1   
     4    1    6 1   
     5    2    3 2   
     6    2    7 1   
     7    7    8 1   
     8    7   15 1   
     9    8    9 1   
    10    8   11 1   
    11    8   16 1   
    12    9   10 2   
    13    9   19 1   
    14   11   12 1   
    15   11   17 1   
    16   11   18 1   
    17   12   13 1   
    18   12   14 1   
    19   19   20 1   
    20   19   28 1   
    21   20   21 1   
    22   20   23 1   
    23   20   29 1   
    24   21   22 2   
    25   21   41 1   
    26   23   24 1   
    27   23   30 1   
    28   23   31 1   
    29   24   25 1   
    30   24   32 1   
    31   24   33 1   
    32   25   26 1   
    33   25   34 1   
    34   25   35 1   
    35   26   27 1   
    36   26   36 1   
    37   26   37 1   
    38   27   38 1   
    39   27   39 1   
    40   27   40 1   
    41   41   42 1   
    42   41   49 1   
    43   42   43 1   
    44   42   45 1   
    45   42   50 1   
    46   43   44 2   
    47   43   53 1   
    48   45   46 1   
    49   45   51 1   
    50   45   52 1   
    51   46   47 1   
    52   46   48 1   
    53   53   54 1   
    54   53   57 1   
    55   54   55 1   
    56   54   58 1   
    57   54   59 1   
    58   55   56 2   
    59   55   60 1   
    60   60   61 1   
    61   60   68 1   
    62   61   62 1   
    63   61   64 1   
    64   61   69 1   
    65   62   63 2   
    66   62   72 1   
    67   64   65 1   
    68   64   70 1   
    69   64   71 1   
    70   65   66 1   
    71   65   67 1   
    72   72   73 1   
    73   72   76 1   
    74   73   74 1   
    75   73   77 1   
    76   73   78 1   
    77   74   75 2   
    78   74   79 1   
    79   79   80 1   
    80   79   86 1   
    81   80   81 1   
    82   80   83 1   
    83   80   87 1   
    84   81   82 2   
    85   81   93 1   
    86   83   84 1   
    87   83   85 1   
    88   83   88 1   
    89   84   90 1   
    90   84   91 1   
    91   84   92 1   
    92   85   89 1   
    93   93   94 1   
    94   93  101 1   
    95   94   95 1   
    96   94   97 1   
    97   94  102 1   
    98   95   96 2   
    99   95  112 1   
   100   97   98 1   
   101   97   99 1   
   102   97  103 1   
   103   98  100 1   
   104   98  104 1   
   105   98  105 1   
   106   99  106 1   
   107   99  107 1   
   108   99  108 1   
   109  100  109 1   
   110  100  110 1   
   111  100  111 1   
   112  112  113 1   
   113  112  119 1   
   114  113  114 1   
   115  113  116 1   
   116  113  120 1   
   117  114  115 2   
   118  114  126 1   
   119  116  117 1   
   120  116  118 1   
   121  116  121 1   
   122  117  123 1   
   123  117  124 1   
   124  117  125 1   
   125  118  122 1   
   126  126  127 1   
   127  126  133 1   
   128  127  128 1   
   129  127  130 1   
   130  127  134 1   
   131  128  129 2   
   132  128  140 1   
   133  130  131 1   
   134  130  132 1   
   135  130  135 1   
   136  131  137 1   
   137  131  138 1   
   138  131  139 1   
   139  132  136 1   
   140  140  141 1   
   141  140  149 1   
   142  141  142 1   
   143  141  144 1   
   144  141  150 1   
   145  142  143 2   
   146  142  162 1   
   147  144  145 1   
   148  144  151 1   
   149  144  152 1   
   150  145  146 1   
   151  145  153 1   
   152  145  154 1   
   153  146  147 1   
   154  146  155 1   
   155  146  156 1   
   156  147  148 1   
   157  147  157 1   
   158  147  158 1   
   159  148  159 1   
   160  148  160 1   
   161  148  161 1   
   162  162  163 1   
   163  162  171 1   
   164  163  164 1   
   165  163  166 1   
   166  163  172 1   
   167  164  165 2   
   168  164  177 1   
   169  166  167 1   
   170  166  173 1   
   171  166  174 1   
   172  167  168 1   
   173  167  175 1   
   174  167  176 1   
   175  168  169 1   
   176  168  170 1   
   177  177  178 1   
   178  177  182 1   
   179  178  179 1   
   180  178  180 1   
   181  178  181 1   
   182  184  185 1   
   183  184  186 1   
   184  187  188 1   
   185  187  189 1   
@<TRIPOS>SUBSTRUCTURE
     1 MOL         1 TEMP              0 ****  ****    0 ROOT
