@<TRIPOS>MOLECULE
MOL
  179   176     1     0     0
SMALL
resp


@<TRIPOS>ATOM
      1 C1         -1.0700    3.0060    6.6640 c3        1 MOL     -0.408732
      2 C2         -1.0310    2.8550    5.1110 c         1 MOL      0.728523
      3 O1          0.0540    3.0130    4.5630 o         1 MOL     -0.573252
      4 H1         -0.5650    2.1570    7.1240 hc        1 MOL      0.102251
      5 H2         -0.5650    3.9280    6.9530 hc        1 MOL      0.102251
      6 H3         -2.1060    3.0370    7.0000 hc        1 MOL      0.102251
      7 N1         -2.1960    2.7150    4.5060 n         1 MOL     -0.677118
      8 C3         -2.3020    2.4670    3.0490 c3        1 MOL      0.075719
      9 C4         -3.0690    3.6070    2.2600 c         1 MOL      0.522283
     10 O2         -4.2870    3.6620    2.2100 o         1 MOL     -0.461823
     11 C5         -2.6730    1.0950    2.6400 c3        1 MOL      0.194437
     12 C6         -2.4980    0.8560    1.1720 c         1 MOL      0.499327
     13 O3         -1.4160    1.2820    0.6890 o         1 MOL     -0.750382
     14 O4         -3.2120    0.0750    0.5770 o         1 MOL     -0.750382
     15 H4         -3.0370    2.6820    5.0620 hn        1 MOL      0.354148
     16 H5         -1.2510    2.5820    2.7780 h1        1 MOL      0.089544
     17 H6         -3.7010    1.0110    3.0010 hc        1 MOL     -0.035400
     18 H7         -2.1090    0.2990    3.1110 hc        1 MOL     -0.035400
     19 N2         -2.2570    4.4900    1.5290 n         1 MOL     -0.406993
     20 C7         -2.7200    5.7110    0.8980 c3        1 MOL      0.054395
     21 C8         -3.6880    5.5140   -0.1960 c         1 MOL      0.516205
     22 O5         -4.7150    6.1450   -0.2260 o         1 MOL     -0.546347
     23 C9         -1.5130    6.5270    0.3830 c3        1 MOL     -0.257586
     24 C10        -1.7630    7.9780    0.0050 c3        1 MOL      0.274118
     25 C11        -0.5880    8.6930   -0.5780 c3        1 MOL     -0.213716
     26 C12        -1.0490    9.8960   -1.3640 c3        1 MOL      0.142337
     27 N3          0.0420   10.8850   -1.7260 n4        1 MOL     -0.318587
     28 H8         -1.2510    4.4110    1.5680 hn        1 MOL      0.270205
     29 H9         -3.3540    6.2460    1.6010 h1        1 MOL      0.061029
     30 H10        -1.1790    5.9640   -0.4850 hc        1 MOL      0.083086
     31 H11        -0.7540    6.6330    1.1560 hc        1 MOL      0.083086
     32 H12        -2.2140    8.5380    0.8250 hc        1 MOL     -0.032611
     33 H13        -2.5240    7.8770   -0.7750 hc        1 MOL     -0.032611
     34 H14         0.0050    8.0920   -1.2710 hc        1 MOL      0.071451
     35 H15        -0.0240    8.9540    0.3150 hc        1 MOL      0.071451
     36 H16        -1.7930   10.4380   -0.7730 hx        1 MOL      0.055033
     37 H17        -1.5450    9.4930   -2.2400 hx        1 MOL      0.055033
     38 H18         0.8730   10.4140   -2.0440 hn        1 MOL      0.315448
     39 H19        -0.2690   11.5360   -2.4240 hn        1 MOL      0.315448
     40 H20         0.4040   11.3390   -0.9000 hn        1 MOL      0.315448
     41 N4         -3.3630    4.6190   -1.1830 n         1 MOL     -0.261197
     42 C13        -4.2710    4.1750   -2.2720 c3        1 MOL     -0.046175
     43 C14        -5.3860    3.2410   -1.7130 c         1 MOL      0.400683
     44 O6         -6.4150    3.0040   -2.3670 o         1 MOL     -0.552493
     45 C15        -3.3530    3.4570   -3.3420 c3        1 MOL     -0.242204
     46 C16        -2.5880    2.2450   -2.7570 c         1 MOL      0.751518
     47 O7         -1.3380    2.1840   -2.7920 o         1 MOL     -0.702779
     48 O8         -3.1730    1.1910   -2.3640 o         1 MOL     -0.702779
     49 H21        -2.4160    4.2680   -1.1090 hn        1 MOL      0.203146
     50 H22        -4.6600    5.1190   -2.6650 h1        1 MOL      0.112499
     51 H23        -2.5800    4.1650   -3.6370 hc        1 MOL      0.073600
     52 H24        -3.9490    3.2310   -4.2210 hc        1 MOL      0.073600
     53 N5         -5.2840    2.6810   -0.4920 n         1 MOL      0.057144
     54 C17        -6.2820    1.9540    0.3160 c3        1 MOL     -0.014220
     55 C18        -6.6970    0.5790   -0.2760 c         1 MOL      0.418820
     56 O9         -7.7010    0.0350    0.0880 o         1 MOL     -0.533531
     57 H25        -4.6000    3.1980    0.0540 hn        1 MOL      0.014285
     58 H26        -7.1660    2.5750    0.4680 h1        1 MOL      0.047939
     59 H27        -5.8420    1.8270    1.3110 h1        1 MOL      0.047939
     60 N6         -5.8690   -0.0460   -1.1490 n         1 MOL     -0.175819
     61 C19        -6.0880   -1.3780   -1.7230 c3        1 MOL      0.001023
     62 C20        -5.9360   -2.4820   -0.5960 c         1 MOL      0.339740
     63 O10        -6.3430   -3.6310   -0.7760 o         1 MOL     -0.509997
     64 C21        -5.0890   -1.5140   -2.9140 c3        1 MOL     -0.145650
     65 C22        -3.8560   -2.4380   -2.6600 c         1 MOL      0.357631
     66 N7         -3.6920   -3.5270   -3.2870 n         1 MOL     -0.617098
     67 O11        -3.0560   -2.2270   -1.8050 o         1 MOL     -0.492803
     68 H28        -5.1990    0.5820   -1.5540 hn        1 MOL      0.145681
     69 H29        -7.0450   -1.4110   -2.2560 h1        1 MOL      0.093638
     70 H30        -4.8050   -0.5750   -3.3990 hc        1 MOL      0.085500
     71 H31        -5.7120   -2.0660   -3.6220 hc        1 MOL      0.085500
     72 H32        -4.3530   -3.7060   -4.0320 hn        1 MOL      0.331182
     73 H33        -2.9580   -4.1840   -3.0760 hn        1 MOL      0.331182
     74 N8         -5.1920   -2.1510    0.4830 n         1 MOL     -0.039347
     75 C23        -5.1510   -2.9110    1.6820 c3        1 MOL     -0.297974
     76 C24        -3.7890   -3.7190    1.8890 c         1 MOL      0.505358
     77 O12        -3.4860   -4.1270    2.9920 o         1 MOL     -0.568184
     78 H34        -4.8350   -1.2070    0.5630 hn        1 MOL      0.211545
     79 H35        -5.9690   -3.6230    1.7370 h1        1 MOL      0.125858
     80 H36        -5.2360   -2.2740    2.5670 h1        1 MOL      0.125858
     81 N9         -2.9800   -3.7120    0.8750 n         1 MOL     -0.297388
     82 C25        -1.5950   -4.2490    0.8920 c3        1 MOL      0.530009
     83 C26        -0.4870   -3.0970    0.9220 c         1 MOL      0.123282
     84 O13        -0.8740   -1.8990    0.5800 o         1 MOL     -0.504167
     85 C27        -1.2580   -5.2830   -0.1990 c3        1 MOL     -0.287420
     86 C28        -2.1400   -6.5370   -0.0740 ca        1 MOL      0.028436
     87 C29        -3.4940   -6.4140   -0.5050 ca        1 MOL     -0.112458
     88 C30        -1.6530   -7.7450    0.3800 ca        1 MOL     -0.112458
     89 C31        -4.3830   -7.4540   -0.3780 ca        1 MOL     -0.366002
     90 C32        -2.5060   -8.9020    0.3610 ca        1 MOL     -0.366002
     91 C33        -3.8870   -8.7200    0.0490 ca        1 MOL      0.426239
     92 O14        -4.7420   -9.7310    0.2880 oh        1 MOL     -0.457352
     93 H37        -3.3290   -3.3750   -0.0130 hn        1 MOL      0.364335
     94 H38        -1.4710   -4.7630    1.8430 h1        1 MOL     -0.045065
     95 H39        -0.2330   -5.6450   -0.0760 hc        1 MOL      0.061211
     96 H40        -1.4420   -4.7440   -1.1220 hc        1 MOL      0.061211
     97 H41        -3.8270   -5.5210   -1.0170 ha        1 MOL      0.120236
     98 H42        -0.6520   -7.8870    0.7530 ha        1 MOL      0.120236
     99 H43        -5.4270   -7.3990   -0.6500 ha        1 MOL      0.178741
    100 H44        -2.1750   -9.7880    0.8800 ha        1 MOL      0.178741
    101 H45        -4.2510  -10.5510    0.3720 ho        1 MOL      0.331757
    102 N10         0.7570   -3.3670    1.3510 n         1 MOL     -0.340542
    103 C34         1.9560   -2.4610    1.3930 c3        1 MOL     -0.124728
    104 C35         3.1470   -3.2040    0.9640 c         1 MOL      0.488961
    105 O15         3.5690   -4.2380    1.5000 o         1 MOL     -0.534054
    106 C36         2.1550   -1.8260    2.7830 c3        1 MOL      0.135511
    107 C37         0.8500   -1.1490    3.2860 c3        1 MOL      0.055978
    108 C38         3.3310   -0.7880    2.7440 c3        1 MOL     -0.100852
    109 C39         0.9510   -0.3460    4.6090 c3        1 MOL     -0.631278
    110 H46         0.8340   -4.3650    1.5290 hn        1 MOL      0.289329
    111 H47         1.7870   -1.6300    0.7040 h1        1 MOL      0.113436
    112 H48         2.4980   -2.6090    3.4620 hc        1 MOL      0.008201
    113 H49         0.2800   -2.0690    3.4340 hc        1 MOL      0.073678
    114 H50         0.3680   -0.5250    2.5340 hc        1 MOL      0.073678
    115 H51         3.1230    0.0310    2.0560 hc        1 MOL      0.017490
    116 H52         3.4210   -0.3590    3.7450 hc        1 MOL      0.017490
    117 H53         4.3060   -1.1820    2.4520 hc        1 MOL      0.017490
    118 H54        -0.0450   -0.0480    4.9330 hc        1 MOL      0.172034
    119 H55         1.5810   -0.8100    5.3620 hc        1 MOL      0.172034
    120 H56         1.2790    0.6630    4.3270 hc        1 MOL      0.172034
    121 N11         3.8630   -2.6550   -0.0690 n         1 MOL     -0.198096
    122 C40         5.1830   -3.1870   -0.6100 c3        1 MOL     -0.116595
    123 C41         6.3950   -2.3290   -0.1860 c         1 MOL      0.374079
    124 O16         6.2110   -1.2460    0.4140 o         1 MOL     -0.269072
    125 C42         5.1550   -3.1290   -2.1320 c3        1 MOL      0.174661
    126 O17         4.8970   -1.8530   -2.6120 oh        1 MOL     -0.592728
    127 H57         3.5420   -1.7940   -0.4890 hn        1 MOL      0.120223
    128 H58         5.3930   -4.1980   -0.2780 h1        1 MOL      0.089984
    129 H59         4.4690   -3.8590   -2.5380 h1        1 MOL      0.010856
    130 H60         6.1550   -3.4110   -2.4560 h1        1 MOL      0.010856
    131 H61         4.0130   -1.5790   -2.3600 ho        1 MOL      0.427602
    132 N12         7.6210   -2.6550   -0.4830 n         1 MOL     -0.273263
    133 C43         8.8120   -2.0190    0.0110 c3        1 MOL      0.020640
    134 C44         8.9300   -0.5370   -0.4150 c         1 MOL      0.551657
    135 O18         9.3110    0.2790    0.3750 o         1 MOL     -0.505271
    136 C45        10.0010   -2.8230   -0.4870 c3        1 MOL     -0.221328
    137 H62         7.7520   -3.5940   -0.8240 hn        1 MOL      0.245749
    138 H63         8.6770   -2.0860    1.0890 h1        1 MOL      0.089393
    139 H64        10.1280   -2.7950   -1.5720 hc        1 MOL      0.073412
    140 H65        10.9110   -2.6110    0.0830 hc        1 MOL      0.073412
    141 H66         9.8470   -3.8890   -0.3120 hc        1 MOL      0.073412
    142 N13         8.6290   -0.1770   -1.7000 n         1 MOL     -0.503204
    143 C46         8.6020    1.2060   -2.0430 c3        1 MOL      0.207731
    144 C47         7.4830    2.0660   -1.3630 c         1 MOL      0.326025
    145 O19         7.5210    3.2510   -1.1440 o         1 MOL     -0.497226
    146 C48         8.4770    1.2700   -3.5710 c3        1 MOL     -0.325988
    147 H67         8.3570   -0.8080   -2.4380 hn        1 MOL      0.321757
    148 H68         9.5250    1.7430   -1.8340 h1        1 MOL      0.069553
    149 H69         7.6260    0.6650   -3.8930 hc        1 MOL      0.085276
    150 H70         8.4070    2.3050   -3.8700 hc        1 MOL      0.085276
    151 H71         9.4070    0.8150   -3.9320 hc        1 MOL      0.085276
    152 N14         6.4150    1.3690   -0.8950 n         1 MOL     -0.024797
    153 C49         5.3900    2.0480   -0.0500 c3        1 MOL     -0.098029
    154 C50         5.8520    2.2330    1.3480 c         1 MOL      0.413105
    155 O20         5.7640    3.3760    1.9160 o         1 MOL     -0.556843
    156 C51         4.0910    1.2780   -0.2000 c3        1 MOL      0.077708
    157 C52         3.4470    1.3310   -1.5720 c3        1 MOL     -0.063101
    158 C53         2.2740    0.3730   -1.6840 c         1 MOL      0.799398
    159 O21         1.0750    0.7080   -1.4430 o         1 MOL     -0.753778
    160 O22         2.6150   -0.8150   -1.9150 o         1 MOL     -0.753778
    161 H72         6.4920    0.3610   -0.8650 hn        1 MOL      0.013353
    162 H73         5.1430    3.0380   -0.4450 h1        1 MOL      0.092796
    163 H74         3.3590    1.6630    0.5080 hc        1 MOL      0.035582
    164 H75         4.2930    0.2150   -0.1060 hc        1 MOL      0.035582
    165 H76         4.2230    1.0060   -2.2670 hc        1 MOL     -0.024673
    166 H77         3.1620    2.3500   -1.8190 hc        1 MOL     -0.024673
    167 N15         6.3920    1.1550    1.8480 n         1 MOL      0.032793
    168 C54         6.7020    0.9720    3.2910 c3        1 MOL     -0.315570
    169 H78         7.5880    1.5530    3.5490 h1        1 MOL      0.115045
    170 H79         5.8580    1.3120    3.8900 h1        1 MOL      0.115045
    171 H80         6.8890   -0.0830    3.4920 h1        1 MOL      0.115045
    172 H81         6.3680    0.3250    1.2800 hn        1 MOL     -0.023913
    173 Ca1        -1.2840   -0.2490   -1.4270 Ca        1 MOL      1.778974
    174 O23        -1.2110   -1.0870   -4.0610 oh        1 MOL     -0.815672
    175 H82        -1.4360   -0.6410   -4.8750 ho        1 MOL      0.396955
    176 H83        -1.0470   -1.9910   -4.3250 ho        1 MOL      0.396955
    177 O24         0.2830   -2.3450   -1.9840 oh        1 MOL     -0.815672
    178 H84         0.1980   -3.2340   -2.3230 ho        1 MOL      0.396955
    179 H85         1.2230   -2.1650   -2.0360 ho        1 MOL      0.396955
@<TRIPOS>BOND
     1    1    2 1   
     2    1    4 1   
     3    1    5 1   
     4    1    6 1   
     5    2    3 2   
     6    2    7 1   
     7    7    8 1   
     8    7   15 1   
     9    8    9 1   
    10    8   11 1   
    11    8   16 1   
    12    9   10 2   
    13    9   19 1   
    14   11   12 1   
    15   11   17 1   
    16   11   18 1   
    17   12   13 1   
    18   12   14 1   
    19   19   20 1   
    20   19   28 1   
    21   20   21 1   
    22   20   23 1   
    23   20   29 1   
    24   21   22 2   
    25   21   41 1   
    26   23   24 1   
    27   23   30 1   
    28   23   31 1   
    29   24   25 1   
    30   24   32 1   
    31   24   33 1   
    32   25   26 1   
    33   25   34 1   
    34   25   35 1   
    35   26   27 1   
    36   26   36 1   
    37   26   37 1   
    38   27   38 1   
    39   27   39 1   
    40   27   40 1   
    41   41   42 1   
    42   41   49 1   
    43   42   43 1   
    44   42   45 1   
    45   42   50 1   
    46   43   44 2   
    47   43   53 1   
    48   45   46 1   
    49   45   51 1   
    50   45   52 1   
    51   46   47 1   
    52   46   48 1   
    53   53   54 1   
    54   53   57 1   
    55   54   55 1   
    56   54   58 1   
    57   54   59 1   
    58   55   56 2   
    59   55   60 1   
    60   60   61 1   
    61   60   68 1   
    62   61   62 1   
    63   61   64 1   
    64   61   69 1   
    65   62   63 2   
    66   62   74 1   
    67   64   65 1   
    68   64   70 1   
    69   64   71 1   
    70   65   66 1   
    71   65   67 2   
    72   66   72 1   
    73   66   73 1   
    74   74   75 1   
    75   74   78 1   
    76   75   76 1   
    77   75   79 1   
    78   75   80 1   
    79   76   77 2   
    80   76   81 1   
    81   81   82 1   
    82   81   93 1   
    83   82   83 1   
    84   82   85 1   
    85   82   94 1   
    86   83   84 2   
    87   83  102 1   
    88   85   86 1   
    89   85   95 1   
    90   85   96 1   
    91   86   87 ar  
    92   86   88 ar  
    93   87   89 ar  
    94   87   97 1   
    95   88   90 ar  
    96   88   98 1   
    97   89   91 ar  
    98   89   99 1   
    99   90   91 ar  
   100   90  100 1   
   101   91   92 1   
   102   92  101 1   
   103  102  103 1   
   104  102  110 1   
   105  103  104 1   
   106  103  106 1   
   107  103  111 1   
   108  104  105 2   
   109  104  121 1   
   110  106  107 1   
   111  106  108 1   
   112  106  112 1   
   113  107  109 1   
   114  107  113 1   
   115  107  114 1   
   116  108  115 1   
   117  108  116 1   
   118  108  117 1   
   119  109  118 1   
   120  109  119 1   
   121  109  120 1   
   122  121  122 1   
   123  121  127 1   
   124  122  123 1   
   125  122  125 1   
   126  122  128 1   
   127  123  124 2   
   128  123  132 1   
   129  125  126 1   
   130  125  129 1   
   131  125  130 1   
   132  126  131 1   
   133  132  133 1   
   134  132  137 1   
   135  133  134 1   
   136  133  136 1   
   137  133  138 1   
   138  134  135 2   
   139  134  142 1   
   140  136  139 1   
   141  136  140 1   
   142  136  141 1   
   143  142  143 1   
   144  142  147 1   
   145  143  144 1   
   146  143  146 1   
   147  143  148 1   
   148  144  145 2   
   149  144  152 1   
   150  146  149 1   
   151  146  150 1   
   152  146  151 1   
   153  152  153 1   
   154  152  161 1   
   155  153  154 1   
   156  153  156 1   
   157  153  162 1   
   158  154  155 2   
   159  154  167 1   
   160  156  157 1   
   161  156  163 1   
   162  156  164 1   
   163  157  158 1   
   164  157  165 1   
   165  157  166 1   
   166  158  159 1   
   167  158  160 1   
   168  167  168 1   
   169  167  172 1   
   170  168  169 1   
   171  168  170 1   
   172  168  171 1   
   173  174  175 1   
   174  174  176 1   
   175  177  178 1   
   176  177  179 1   
@<TRIPOS>SUBSTRUCTURE
     1 MOL         1 TEMP              0 ****  ****    0 ROOT
