@<TRIPOS>MOLECULE
MOL
  178   175     1     0     0
SMALL
resp


@<TRIPOS>ATOM
      1 C1          0.6790   -1.6650    6.2330 c3        1 MOL     -0.341445
      2 C2          0.5800   -1.3770    4.7560 c         1 MOL      0.807902
      3 O1         -0.4780   -1.5790    4.1410 o         1 MOL     -0.593518
      4 H1         -0.3230   -1.7820    6.6480 hc        1 MOL      0.082260
      5 H2          1.2450   -2.5840    6.3880 hc        1 MOL      0.082260
      6 H3          1.1830   -0.8390    6.7320 hc        1 MOL      0.082260
      7 N1          1.6930   -0.8870    4.1200 n         1 MOL     -0.645656
      8 C3          1.8840   -0.9930    2.6840 c3        1 MOL      0.060214
      9 C4          2.2320   -2.4850    2.3240 c         1 MOL      0.488500
     10 O2          3.1720   -3.1170    2.9050 o         1 MOL     -0.544113
     11 C5          3.0670   -0.1260    2.2680 c3        1 MOL     -0.011777
     12 C6          3.4010   -0.1300    0.7600 c         1 MOL      0.572468
     13 O3          2.8630   -0.9440    0.0140 o         1 MOL     -0.598456
     14 O4          4.2430    0.6820    0.3420 o         1 MOL     -0.598456
     15 H4          2.4740   -0.5690    4.6780 hn        1 MOL      0.313515
     16 H5          0.9980   -0.6290    2.1730 h1        1 MOL      0.055197
     17 H6          3.9330   -0.4820    2.8080 hc        1 MOL      0.017156
     18 H7          2.8740    0.9150    2.5430 hc        1 MOL      0.017156
     19 N2          1.3670   -3.0160    1.4530 n         1 MOL     -0.241046
     20 C7          1.4380   -4.4270    1.0740 c3        1 MOL     -0.024013
     21 C8          2.6130   -4.8500    0.0820 c         1 MOL      0.511111
     22 O5          2.9370   -6.0260    0.0370 o         1 MOL     -0.571817
     23 C9          0.0690   -4.8640    0.5190 c3        1 MOL      0.009285
     24 H8          0.7690   -2.4290    0.8980 hn        1 MOL      0.197163
     25 H9          1.6190   -5.0150    1.9730 h1        1 MOL      0.075677
     26 H10        -0.0460   -5.9400    0.4380 hc        1 MOL      0.011697
     27 H11        -0.7380   -4.5830    1.1990 hc        1 MOL      0.011697
     28 H12        -0.1640   -4.4370   -0.4470 hc        1 MOL      0.011697
     29 N3          3.2120   -3.9260   -0.6950 n         1 MOL     -0.311760
     30 C10         4.5890   -4.1810   -1.3260 c3        1 MOL      0.173342
     31 C11         5.7530   -3.5610   -0.5280 c         1 MOL      0.280179
     32 O6          6.9290   -3.9060   -0.7650 o         1 MOL     -0.549762
     33 C12         4.6250   -3.6790   -2.7870 c3        1 MOL     -0.409916
     34 C13         4.1980   -2.2100   -2.8980 c         1 MOL      0.819514
     35 O7          5.0760   -1.3170   -2.7020 o         1 MOL     -0.737953
     36 O8          2.9880   -1.9920   -2.9740 o         1 MOL     -0.737953
     37 H13         2.8890   -2.9700   -0.6710 hn        1 MOL      0.180205
     38 H14         4.8020   -5.2360   -1.4820 h1        1 MOL      0.100393
     39 H15         4.1670   -4.4820   -3.3540 hc        1 MOL      0.105680
     40 H16         5.6500   -3.7200   -3.1400 hc        1 MOL      0.105680
     41 N4          5.5030   -2.6980    0.4610 n         1 MOL      0.126389
     42 C14         6.4120   -2.3150    1.5360 c3        1 MOL     -0.409304
     43 C15         7.2050   -1.0270    1.2890 c         1 MOL      0.573255
     44 O9          7.7790   -0.5760    2.2440 o         1 MOL     -0.570442
     45 H17         4.5120   -2.4850    0.5250 hn        1 MOL     -0.066385
     46 H18         7.0130   -3.2140    1.6120 h1        1 MOL      0.175403
     47 H19         5.7170   -2.1890    2.3630 h1        1 MOL      0.175403
     48 N5          7.1580   -0.4320    0.0890 n         1 MOL     -0.226460
     49 C16         7.8550    0.8260   -0.2710 c3        1 MOL     -0.162803
     50 C17         7.5800    2.0260    0.5340 c         1 MOL      0.475615
     51 O10         8.4780    2.8450    0.6870 o         1 MOL     -0.561108
     52 C18         7.7100    1.0810   -1.7390 c3        1 MOL     -0.129869
     53 C19         8.5270    0.1650   -2.5760 c         1 MOL      0.572158
     54 N6          7.9400   -0.9130   -3.0560 n         1 MOL     -0.646923
     55 O11         9.7200    0.3360   -2.7210 o         1 MOL     -0.588379
     56 H20         6.5130   -0.8520   -0.5670 hn        1 MOL      0.192616
     57 H21         8.9130    0.6090   -0.1440 h1        1 MOL      0.148568
     58 H22         8.0560    2.0860   -1.9540 hc        1 MOL      0.058106
     59 H23         6.6550    1.0940   -2.0130 hc        1 MOL      0.058106
     60 H24         6.9390   -0.9850   -2.8920 hn        1 MOL      0.324993
     61 H25         8.4220   -1.5670   -3.6540 hn        1 MOL      0.324993
     62 N7          6.4070    2.1790    1.1410 n         1 MOL     -0.081690
     63 C20         6.0170    3.3450    1.9030 c3        1 MOL     -0.112080
     64 C21         4.7880    4.1970    1.5470 c         1 MOL      0.567760
     65 O12         4.6870    5.3560    1.9740 o         1 MOL     -0.557877
     66 H26         5.7340    1.4300    1.1180 hn        1 MOL      0.177456
     67 H27         6.8850    3.9970    1.9060 h1        1 MOL      0.056119
     68 H28         5.7890    2.9270    2.8760 h1        1 MOL      0.056119
     69 N8          3.7650    3.6680    0.7410 n         1 MOL     -0.117604
     70 C22         2.4960    4.2660    0.3280 c3        1 MOL     -0.750393
     71 C23         1.4180    3.2570    0.3600 c         1 MOL      0.906099
     72 O13         1.5550    2.1570   -0.2930 o         1 MOL     -0.652851
     73 C24         2.4570    4.9420   -1.0740 c3        1 MOL      0.671466
     74 C25         3.0630    6.3460   -1.0210 c3        1 MOL     -0.668462
     75 O14         2.9140    4.1980   -2.1640 oh        1 MOL     -0.581640
     76 H29         3.8020    2.6720    0.5490 hn        1 MOL      0.099291
     77 H30         2.1980    4.9840    1.1020 h1        1 MOL      0.208560
     78 H31         1.4020    5.0860   -1.3130 h1        1 MOL     -0.039724
     79 H32         2.4290    3.3790   -2.3070 ho        1 MOL      0.273141
     80 H33         4.1440    6.3140   -1.1130 hc        1 MOL      0.172968
     81 H34         2.7560    6.7740   -1.9720 hc        1 MOL      0.172968
     82 H35         2.7020    6.8460   -0.1170 hc        1 MOL      0.172968
     83 N9          0.3320    3.5310    1.0790 n         1 MOL     -0.521520
     84 C26        -0.8520    2.6970    1.2340 c3        1 MOL      0.002146
     85 C27        -1.9260    2.9280    0.1060 c         1 MOL      0.536430
     86 O15        -2.5470    3.9750    0.1080 o         1 MOL     -0.597559
     87 C28        -1.4240    2.9310    2.6620 c3        1 MOL      0.216253
     88 C29        -0.2620    2.8850    3.6660 c3        1 MOL      0.158208
     89 C30        -2.6240    2.0600    3.0930 c3        1 MOL     -0.300819
     90 C31        -0.6230    2.9690    5.1120 c3        1 MOL     -0.300212
     91 H36         0.3060    4.4230    1.5690 hn        1 MOL      0.259674
     92 H37        -0.4720    1.6870    1.0950 h1        1 MOL      0.055373
     93 H38        -1.7590    3.9660    2.7690 hc        1 MOL     -0.021413
     94 H39         0.3710    3.7580    3.5230 hc        1 MOL     -0.026784
     95 H40         0.4290    2.0670    3.4590 hc        1 MOL     -0.026784
     96 H41        -2.3100    1.0420    3.3620 hc        1 MOL      0.066476
     97 H42        -3.1600    2.5440    3.9030 hc        1 MOL      0.066476
     98 H43        -3.2400    1.9330    2.2040 hc        1 MOL      0.066476
     99 H44        -1.3900    3.7360    5.2490 hc        1 MOL      0.060160
    100 H45        -1.0710    2.0380    5.4500 hc        1 MOL      0.060160
    101 H46         0.2300    3.1190    5.7650 hc        1 MOL      0.060160
    102 N10        -2.2710    1.9280   -0.6550 n         1 MOL     -0.375930
    103 C32        -3.4310    1.8280   -1.5910 c3        1 MOL      0.233383
    104 C33        -4.7760    1.3540   -0.9380 c         1 MOL      0.509814
    105 O16        -4.8170    0.8990    0.2120 o         1 MOL     -0.357043
    106 C34        -3.1070    0.9520   -2.8330 c3        1 MOL     -0.529386
    107 C35        -1.7000    1.1500   -3.3020 c         1 MOL      0.937158
    108 O17        -0.8700    0.2820   -3.0180 o         1 MOL     -0.732350
    109 O18        -1.4220    2.0540   -4.1020 o         1 MOL     -0.732350
    110 H47        -1.7010    1.1050   -0.4790 hn        1 MOL      0.207668
    111 H48        -3.6180    2.8270   -1.9800 h1        1 MOL      0.048505
    112 H49        -3.8150    1.2240   -3.6040 hc        1 MOL      0.123785
    113 H50        -3.2270   -0.1110   -2.6090 hc        1 MOL      0.123785
    114 N11        -5.9070    1.3880   -1.7190 n         1 MOL     -0.844491
    115 C36        -7.2080    1.1910   -1.0810 c3        1 MOL      0.577499
    116 C37        -7.3910   -0.2300   -0.4970 c         1 MOL      0.284771
    117 O19        -7.7310   -0.3980    0.7010 o         1 MOL     -0.514667
    118 C38        -8.3680    1.6600   -1.9630 c3        1 MOL     -0.222413
    119 C39        -9.6800    1.4240   -1.3400 ca        1 MOL      0.159686
    120 C40        -9.9980    2.1020   -0.1270 ca        1 MOL     -0.247919
    121 C41       -10.5450    0.5080   -1.8980 ca        1 MOL     -0.247919
    122 C42       -11.2210    1.9590    0.4730 ca        1 MOL     -0.015721
    123 C43       -11.8420    0.3890   -1.3330 ca        1 MOL     -0.015721
    124 C44       -12.2000    1.1410   -0.1790 ca        1 MOL     -0.222947
    125 H51        -5.9360    1.8430   -2.6190 hn        1 MOL      0.376736
    126 H52        -7.2950    1.8330   -0.2000 h1        1 MOL     -0.005522
    127 H53        -8.4130    1.3600   -3.0130 hc        1 MOL      0.050809
    128 H54        -8.2310    2.7430   -2.0590 hc        1 MOL      0.050809
    129 H55        -9.2810    2.8180    0.2290 ha        1 MOL      0.135292
    130 H56       -10.1660   -0.1030   -2.7010 ha        1 MOL      0.135292
    131 H57       -11.4620    2.4370    1.4070 ha        1 MOL      0.095267
    132 H58       -12.5980   -0.2530   -1.7480 ha        1 MOL      0.095267
    133 H59       -13.1890    1.1180    0.2690 ha        1 MOL      0.126677
    134 N12        -7.1010   -1.2420   -1.2390 n         1 MOL     -0.084349
    135 C45        -7.1410   -2.5920   -0.7750 c3        1 MOL      0.128540
    136 C46        -6.1280   -2.8200    0.4260 c         1 MOL      0.289624
    137 O20        -6.3470   -3.7820    1.1750 o         1 MOL     -0.500087
    138 C47        -6.7950   -3.5480   -1.9110 c3        1 MOL     -0.179744
    139 C48        -7.2460   -2.6660   -3.0060 c3        1 MOL      0.168800
    140 C49        -6.9710   -1.2570   -2.6370 c3        1 MOL     -0.093223
    141 H60        -8.1090   -2.8650   -0.3510 h1        1 MOL      0.050539
    142 H61        -5.7410   -3.6940   -2.1450 hc        1 MOL      0.071927
    143 H62        -7.3630   -4.4780   -1.8870 hc        1 MOL      0.071927
    144 H63        -6.8880   -2.8190   -4.0250 hc        1 MOL     -0.034328
    145 H64        -8.3260   -2.8130   -3.0880 hc        1 MOL     -0.034328
    146 H65        -5.9260   -1.0170   -2.8150 h1        1 MOL      0.043154
    147 H66        -7.7030   -0.6330   -3.1610 h1        1 MOL      0.043154
    148 N13        -5.0700   -2.0150    0.5020 n         1 MOL     -0.234624
    149 C50        -4.0660   -2.1150    1.6030 c3        1 MOL     -0.103120
    150 C51        -4.5390   -1.4600    2.9170 c         1 MOL      0.528392
    151 O21        -4.3520   -1.9690    3.9690 o         1 MOL     -0.564248
    152 C52        -2.7130   -1.5550    1.1890 c3        1 MOL      0.226306
    153 C53        -2.1780   -2.0500   -0.1690 c3        1 MOL     -0.015601
    154 C54        -0.8390   -1.4620   -0.5630 c         1 MOL      0.580951
    155 O22        -0.3580   -0.3550   -0.1700 o         1 MOL     -0.652051
    156 O23        -0.2260   -1.9750   -1.5220 o         1 MOL     -0.652051
    157 H67        -5.1150   -1.1110    0.0460 hn        1 MOL      0.231355
    158 H68        -3.8600   -3.1680    1.7610 h1        1 MOL      0.091326
    159 H69        -1.9870   -1.8240    1.9440 hc        1 MOL     -0.051359
    160 H70        -2.7920   -0.4650    1.1560 hc        1 MOL     -0.051359
    161 H71        -2.9750   -1.8060   -0.8730 hc        1 MOL     -0.017912
    162 H72        -2.0840   -3.1350   -0.1610 hc        1 MOL     -0.017912
    163 N14        -5.3150   -0.4030    2.7590 n         1 MOL     -0.007434
    164 C55        -6.0820    0.2860    3.7820 c3        1 MOL     -0.266376
    165 H73        -7.0900   -0.1280    3.8200 h1        1 MOL      0.090033
    166 H74        -5.5980    0.1530    4.7500 h1        1 MOL      0.090033
    167 H75        -6.1340    1.3480    3.5440 h1        1 MOL      0.090033
    168 H76        -5.2060    0.0880    1.8720 hn        1 MOL      0.035591
    169 Ca1         1.4870   -0.0830   -1.9870 Ca        1 MOL      1.697720
    170 O24         1.5130   -0.3120   -5.1070 oh        1 MOL     -0.753408
    171 H77         0.9090    0.0400   -5.7690 ho        1 MOL      0.366518
    172 H78         2.3790    0.0110   -5.3810 ho        1 MOL      0.366518
    173 O25         1.1780    2.2870   -3.1900 oh        1 MOL     -0.753408
    174 H79         1.8090    2.3820   -3.8990 ho        1 MOL      0.366518
    175 H80         0.3330    2.2230   -3.6350 ho        1 MOL      0.366518
    176 O26         3.8400    1.0790   -2.0870 oh        1 MOL     -0.753408
    177 H81         3.9810    1.0230   -1.1380 ho        1 MOL      0.366518
    178 H82         4.3920    0.3850   -2.4490 ho        1 MOL      0.366518
@<TRIPOS>BOND
     1    1    2 1   
     2    1    4 1   
     3    1    5 1   
     4    1    6 1   
     5    2    3 2   
     6    2    7 1   
     7    7    8 1   
     8    7   15 1   
     9    8    9 1   
    10    8   11 1   
    11    8   16 1   
    12    9   10 2   
    13    9   19 1   
    14   11   12 1   
    15   11   17 1   
    16   11   18 1   
    17   12   13 1   
    18   12   14 1   
    19   19   20 1   
    20   19   24 1   
    21   20   21 1   
    22   20   23 1   
    23   20   25 1   
    24   21   22 2   
    25   21   29 1   
    26   23   26 1   
    27   23   27 1   
    28   23   28 1   
    29   29   30 1   
    30   29   37 1   
    31   30   31 1   
    32   30   33 1   
    33   30   38 1   
    34   31   32 2   
    35   31   41 1   
    36   33   34 1   
    37   33   39 1   
    38   33   40 1   
    39   34   35 1   
    40   34   36 1   
    41   41   42 1   
    42   41   45 1   
    43   42   43 1   
    44   42   46 1   
    45   42   47 1   
    46   43   44 2   
    47   43   48 1   
    48   48   49 1   
    49   48   56 1   
    50   49   50 1   
    51   49   52 1   
    52   49   57 1   
    53   50   51 2   
    54   50   62 1   
    55   52   53 1   
    56   52   58 1   
    57   52   59 1   
    58   53   54 1   
    59   53   55 2   
    60   54   60 1   
    61   54   61 1   
    62   62   63 1   
    63   62   66 1   
    64   63   64 1   
    65   63   67 1   
    66   63   68 1   
    67   64   65 2   
    68   64   69 1   
    69   69   70 1   
    70   69   76 1   
    71   70   71 1   
    72   70   73 1   
    73   70   77 1   
    74   71   72 2   
    75   71   83 1   
    76   73   74 1   
    77   73   75 1   
    78   73   78 1   
    79   74   80 1   
    80   74   81 1   
    81   74   82 1   
    82   75   79 1   
    83   83   84 1   
    84   83   91 1   
    85   84   85 1   
    86   84   87 1   
    87   84   92 1   
    88   85   86 2   
    89   85  102 1   
    90   87   88 1   
    91   87   89 1   
    92   87   93 1   
    93   88   90 1   
    94   88   94 1   
    95   88   95 1   
    96   89   96 1   
    97   89   97 1   
    98   89   98 1   
    99   90   99 1   
   100   90  100 1   
   101   90  101 1   
   102  102  103 1   
   103  102  110 1   
   104  103  104 1   
   105  103  106 1   
   106  103  111 1   
   107  104  105 2   
   108  104  114 1   
   109  106  107 1   
   110  106  112 1   
   111  106  113 1   
   112  107  108 1   
   113  107  109 1   
   114  114  115 1   
   115  114  125 1   
   116  115  116 1   
   117  115  118 1   
   118  115  126 1   
   119  116  117 2   
   120  116  134 1   
   121  118  119 1   
   122  118  127 1   
   123  118  128 1   
   124  119  120 ar  
   125  119  121 ar  
   126  120  122 ar  
   127  120  129 1   
   128  121  123 ar  
   129  121  130 1   
   130  122  124 ar  
   131  122  131 1   
   132  123  124 ar  
   133  123  132 1   
   134  124  133 1   
   135  134  135 1   
   136  134  140 1   
   137  135  136 1   
   138  135  138 1   
   139  135  141 1   
   140  136  137 2   
   141  136  148 1   
   142  138  139 1   
   143  138  142 1   
   144  138  143 1   
   145  139  140 1   
   146  139  144 1   
   147  139  145 1   
   148  140  146 1   
   149  140  147 1   
   150  148  149 1   
   151  148  157 1   
   152  149  150 1   
   153  149  152 1   
   154  149  158 1   
   155  150  151 2   
   156  150  163 1   
   157  152  153 1   
   158  152  159 1   
   159  152  160 1   
   160  153  154 1   
   161  153  161 1   
   162  153  162 1   
   163  154  155 1   
   164  154  156 1   
   165  163  164 1   
   166  163  168 1   
   167  164  165 1   
   168  164  166 1   
   169  164  167 1   
   170  170  171 1   
   171  170  172 1   
   172  173  174 1   
   173  173  175 1   
   174  176  177 1   
   175  176  178 1   
@<TRIPOS>SUBSTRUCTURE
     1 MOL         1 TEMP              0 ****  ****    0 ROOT
