@<TRIPOS>MOLECULE
MOL
  179   176     1     0     0
SMALL
resp


@<TRIPOS>ATOM
      1 C1          1.4380    4.5380    4.4810 c3        1 MOL     -0.360485
      2 C2          0.8500    3.7620    3.3670 c         1 MOL      0.618699
      3 O1          1.3660    3.7560    2.2350 o         1 MOL     -0.578051
      4 H1          0.6820    5.1990    4.9020 hc        1 MOL      0.092439
      5 H2          1.7910    3.8550    5.2530 hc        1 MOL      0.092439
      6 H3          2.2730    5.1310    4.1100 hc        1 MOL      0.092439
      7 N1         -0.3490    3.1690    3.4800 n         1 MOL     -0.279372
      8 C3         -1.1750    2.7990    2.3690 c3        1 MOL     -0.047089
      9 C4         -1.9210    3.9920    1.7230 c         1 MOL      0.456972
     10 O2         -3.0680    4.3290    2.0730 o         1 MOL     -0.480445
     11 C5         -2.1300    1.6820    2.7350 c3        1 MOL     -0.152434
     12 C6         -2.8500    1.1200    1.5160 c         1 MOL      0.848301
     13 O3         -3.9090    0.5270    1.7440 o         1 MOL     -0.769549
     14 O4         -2.3220    1.1510    0.3620 o         1 MOL     -0.769549
     15 H4         -0.8120    3.1910    4.3740 hn        1 MOL      0.234509
     16 H5         -0.4730    2.3920    1.6430 h1        1 MOL      0.032284
     17 H6         -2.8630    1.9800    3.4870 hc        1 MOL      0.058821
     18 H7         -1.5320    0.8660    3.1320 hc        1 MOL      0.058821
     19 N2         -1.2330    4.5760    0.7850 n         1 MOL     -0.596212
     20 C7         -1.6440    5.8490    0.1420 c3        1 MOL      0.368447
     21 C8         -2.7560    5.6070   -0.8370 c         1 MOL      0.263441
     22 O5         -3.7490    6.3320   -0.8300 o         1 MOL     -0.535367
     23 C9         -0.5980    6.5930   -0.5640 c3        1 MOL     -0.423899
     24 C10         0.3690    7.1930    0.5050 c3        1 MOL      0.424342
     25 C11         1.5740    7.8680   -0.0950 c3        1 MOL     -0.143317
     26 C12         2.6110    8.0990    1.0530 c3        1 MOL     -0.004346
     27 N3          2.0530    8.6980    2.3260 n4        1 MOL     -0.315592
     28 H8         -0.2640    4.2990    0.6760 hn        1 MOL      0.391455
     29 H9         -2.0200    6.5800    0.8550 h1        1 MOL      0.020080
     30 H10        -0.9740    7.4460   -1.1440 hc        1 MOL      0.115666
     31 H11        -0.1000    5.8680   -1.2090 hc        1 MOL      0.115666
     32 H12         0.6390    6.3640    1.1590 hc        1 MOL     -0.109813
     33 H13        -0.1790    7.9220    1.0940 hc        1 MOL     -0.109813
     34 H14         1.2900    8.7590   -0.6440 hc        1 MOL      0.068494
     35 H15         2.0040    7.1770   -0.8210 hc        1 MOL      0.068494
     36 H16         3.3490    8.7370    0.5720 hx        1 MOL      0.101370
     37 H17         3.0990    7.1420    1.2500 hx        1 MOL      0.101370
     38 H18         1.4900    9.5170    2.1640 hn        1 MOL      0.313743
     39 H19         1.3630    8.0810    2.7370 hn        1 MOL      0.313743
     40 H20         2.7450    8.8840    3.0330 hn        1 MOL      0.313743
     41 N4         -2.7700    4.5640   -1.6180 n         1 MOL     -0.096539
     42 C13        -3.8930    4.2400   -2.5520 c3        1 MOL     -0.075839
     43 C14        -5.1050    3.5420   -1.8820 c         1 MOL      0.408129
     44 O6         -6.1890    3.4810   -2.4820 o         1 MOL     -0.519487
     45 C15        -3.3100    3.3470   -3.6920 c3        1 MOL     -0.190942
     46 C16        -2.7510    2.1150   -3.1710 c         1 MOL      0.814783
     47 O7         -3.5010    1.1270   -3.0700 o         1 MOL     -0.771413
     48 O8         -1.5410    2.1850   -2.7430 o         1 MOL     -0.771413
     49 H21        -1.8690    4.1580   -1.8350 hn        1 MOL      0.191205
     50 H22        -4.2660    5.1680   -2.9670 h1        1 MOL      0.121319
     51 H23        -2.5480    3.9300   -4.2020 hc        1 MOL      0.049871
     52 H24        -4.1250    3.1650   -4.4040 hc        1 MOL      0.049871
     53 N5         -5.0450    3.1250   -0.6290 n         1 MOL      0.109564
     54 C17        -6.2280    2.7000    0.1770 c3        1 MOL     -0.311987
     55 C18        -6.9250    1.4660   -0.3090 c         1 MOL      0.596023
     56 O9         -8.1510    1.3830   -0.3090 o         1 MOL     -0.550660
     57 H25        -4.1670    3.0260   -0.1340 hn        1 MOL      0.010615
     58 H26        -7.0170    3.4530    0.2120 h1        1 MOL      0.126273
     59 H27        -5.7090    2.5210    1.1250 h1        1 MOL      0.126273
     60 N6         -6.1240    0.4970   -0.7640 n         1 MOL     -0.367013
     61 C19        -6.6040   -0.8290   -1.1920 c3        1 MOL      0.105419
     62 C20        -6.5760   -1.8460   -0.0360 c         1 MOL      0.423506
     63 O10        -7.2630   -2.8160   -0.1070 o         1 MOL     -0.524461
     64 C21        -5.8860   -1.1320   -2.5210 c3        1 MOL     -0.257250
     65 C22        -4.4290   -1.4960   -2.3990 c         1 MOL      0.778592
     66 N7         -3.8780   -2.1210   -3.4760 n         1 MOL     -0.818407
     67 O11        -3.7470   -1.3540   -1.3950 o         1 MOL     -0.705858
     68 H28        -5.1340    0.6820   -0.7240 hn        1 MOL      0.204281
     69 H29        -7.6830   -0.7720   -1.3670 h1        1 MOL      0.079724
     70 H30        -5.9140   -0.2050   -3.0950 hc        1 MOL      0.108104
     71 H31        -6.4570   -1.9070   -3.0450 hc        1 MOL      0.108104
     72 H32        -4.5050   -2.2020   -4.2550 hn        1 MOL      0.359415
     73 H33        -2.9440   -2.4920   -3.3730 hn        1 MOL      0.359415
     74 N8         -5.6240   -1.7020    0.9370 n         1 MOL     -0.255084
     75 C23        -5.5810   -2.6010    2.1780 c3        1 MOL     -0.068043
     76 C24        -4.2800   -3.3330    2.5060 c         1 MOL      0.666013
     77 O12        -4.2660   -4.0130    3.5170 o         1 MOL     -0.600682
     78 H34        -4.9980   -0.9090    0.9600 hn        1 MOL      0.259475
     79 H35        -6.2360   -3.4710    2.2210 h1        1 MOL      0.084159
     80 H36        -5.9410   -2.0790    3.0580 h1        1 MOL      0.084159
     81 N9         -3.2230   -3.1900    1.7240 n         1 MOL     -0.586108
     82 C25        -1.8280   -3.7690    1.8160 c3        1 MOL      0.431856
     83 C26        -0.7030   -2.7680    1.5010 c         1 MOL      0.490729
     84 O13        -0.9080   -1.8350    0.7090 o         1 MOL     -0.586185
     85 C27        -1.7040   -4.9770    0.8980 c3        1 MOL     -0.061822
     86 C28        -2.9960   -5.7720    0.7960 ca        1 MOL     -0.066807
     87 C29        -3.8350   -5.3330   -0.2360 ca        1 MOL     -0.074834
     88 C30        -3.2870   -6.8880    1.6400 ca        1 MOL     -0.074834
     89 C31        -5.0310   -6.0060   -0.4560 ca        1 MOL     -0.372537
     90 C32        -4.5400   -7.4870    1.5210 ca        1 MOL     -0.372537
     91 C33        -5.4160   -7.0130    0.4840 ca        1 MOL      0.467166
     92 O14        -6.6490   -7.5010    0.3490 oh        1 MOL     -0.524992
     93 H37        -3.3620   -2.6820    0.8590 hn        1 MOL      0.248287
     94 H38        -1.6940   -4.0850    2.8520 h1        1 MOL     -0.012150
     95 H39        -0.9080   -5.5650    1.3540 hc        1 MOL      0.001905
     96 H40        -1.4780   -4.6570   -0.1180 hc        1 MOL      0.001905
     97 H41        -3.5250   -4.5010   -0.8380 ha        1 MOL      0.128830
     98 H42        -2.6320   -7.2330    2.4290 ha        1 MOL      0.128830
     99 H43        -5.7340   -5.5900   -1.1540 ha        1 MOL      0.178645
    100 H44        -4.8360   -8.1790    2.2970 ha        1 MOL      0.178645
    101 H45        -6.9520   -8.1990    0.9370 ho        1 MOL      0.390484
    102 N10         0.4890   -3.1300    1.9690 n         1 MOL     -0.636218
    103 C34         1.7180   -2.4400    1.6090 c3        1 MOL      0.030928
    104 C35         2.6780   -3.4840    1.0480 c         1 MOL      0.619077
    105 O15         2.8750   -4.5330    1.6650 o         1 MOL     -0.551306
    106 C36         2.2920   -1.7700    2.8600 c3        1 MOL     -0.044068
    107 C37         1.3970   -0.5410    3.1700 c3        1 MOL      0.170951
    108 C38         3.8160   -1.3770    2.8560 c3        1 MOL     -0.050858
    109 C39         1.6910    0.2300    4.4310 c3        1 MOL     -0.148549
    110 H46         0.5860   -3.9190    2.6010 hn        1 MOL      0.343698
    111 H47         1.4660   -1.7730    0.7690 h1        1 MOL      0.049373
    112 H48         2.1770   -2.4360    3.7120 hc        1 MOL      0.046713
    113 H49         0.3560   -0.8300    3.1550 hc        1 MOL     -0.000292
    114 H50         1.5620    0.1920    2.3800 hc        1 MOL     -0.000292
    115 H51         4.0640   -0.8890    3.7930 hc        1 MOL      0.000265
    116 H52         4.3820   -2.2770    2.6180 hc        1 MOL      0.000265
    117 H53         3.9270   -0.6620    2.0330 hc        1 MOL      0.000265
    118 H54         0.8200    0.8050    4.7590 hc        1 MOL      0.022341
    119 H55         1.8150   -0.5400    5.1980 hc        1 MOL      0.022341
    120 H56         2.5490    0.8440    4.1810 hc        1 MOL      0.022341
    121 N11         3.3010   -3.1340   -0.0900 n         1 MOL     -0.505528
    122 C40         4.5310   -3.6730   -0.6440 c3        1 MOL      0.010281
    123 C41         5.7920   -3.0360   -0.1030 c         1 MOL      0.361466
    124 O16         5.8130   -1.8990    0.4120 o         1 MOL     -0.184071
    125 C42         4.5360   -3.5740   -2.1400 c3        1 MOL     -0.121770
    126 O17         4.4470   -2.2520   -2.5690 oh        1 MOL     -0.501134
    127 H57         2.9750   -2.3120   -0.5770 hn        1 MOL      0.451503
    128 H58         4.4880   -4.7370   -0.4120 h1        1 MOL      0.071634
    129 H59         3.6240   -4.0980   -2.4240 h1        1 MOL      0.096699
    130 H60         5.4380   -3.9610   -2.6060 h1        1 MOL      0.096699
    131 H61         3.6030   -1.9620   -2.2260 ho        1 MOL      0.386400
    132 N12         6.9420   -3.6650   -0.3300 n         1 MOL     -0.378856
    133 C43         8.1860   -3.0830    0.0480 c3        1 MOL     -0.073222
    134 C44         8.4800   -1.7940   -0.7290 c         1 MOL      0.600859
    135 O18         9.1360   -0.9000   -0.1940 o         1 MOL     -0.494154
    136 C45         9.3190   -4.0910   -0.1460 c3        1 MOL     -0.164915
    137 H62         6.9080   -4.5770   -0.7600 hn        1 MOL      0.276144
    138 H63         7.9820   -2.8100    1.0860 h1        1 MOL      0.121953
    139 H64         9.0290   -5.0940    0.1380 hc        1 MOL      0.068398
    140 H65         9.6690   -4.2900   -1.1530 hc        1 MOL      0.068398
    141 H66        10.1960   -3.8320    0.4420 hc        1 MOL      0.068398
    142 N13         8.0110   -1.7780   -1.9910 n         1 MOL     -0.620935
    143 C46         7.9850   -0.5670   -2.7960 c3        1 MOL      0.302285
    144 C47         7.2870    0.6100   -2.1200 c         1 MOL      0.323703
    145 O19         7.8330    1.7190   -2.2270 o         1 MOL     -0.519264
    146 C48         7.3990   -0.5710   -4.1760 c3        1 MOL     -0.304475
    147 H67         7.5280   -2.5610   -2.4150 hn        1 MOL      0.358959
    148 H68         9.0030   -0.1700   -2.8270 h1        1 MOL      0.032654
    149 H69         6.3330   -0.7990   -4.1540 hc        1 MOL      0.078519
    150 H70         7.5740    0.3760   -4.6720 hc        1 MOL      0.078519
    151 H71         7.8300   -1.4180   -4.7170 hc        1 MOL      0.078519
    152 N14         6.1230    0.4040   -1.5000 n         1 MOL     -0.093811
    153 C49         5.5010    1.4100   -0.5670 c3        1 MOL     -0.152685
    154 C50         6.1490    1.5450    0.7500 c         1 MOL      0.513801
    155 O20         6.1760    2.6560    1.2790 o         1 MOL     -0.593323
    156 C51         4.0430    1.0120   -0.4050 c3        1 MOL     -0.046597
    157 C52         3.2470    0.9390   -1.7560 c3        1 MOL     -0.105116
    158 C53         1.9950    0.0940   -1.5050 c         1 MOL      0.775413
    159 O21         0.8950    0.5690   -1.2440 o         1 MOL     -0.790740
    160 O22         2.0850   -1.1120   -1.7630 o         1 MOL     -0.790740
    161 H72         5.7720   -0.5410   -1.6300 hn        1 MOL      0.133504
    162 H73         5.6860    2.3630   -1.0550 h1        1 MOL      0.121742
    163 H74         3.4120    1.6470    0.2170 hc        1 MOL      0.070144
    164 H75         4.0020    0.0180    0.0510 hc        1 MOL      0.070144
    165 H76         3.8100    0.4460   -2.5400 hc        1 MOL      0.017359
    166 H77         3.0280    1.9510   -2.0790 hc        1 MOL      0.017359
    167 N15         6.6680    0.4980    1.4010 n         1 MOL      0.031296
    168 C54         7.3430    0.5690    2.6940 c3        1 MOL     -0.331726
    169 H78         7.9230   -0.3400    2.8500 h1        1 MOL      0.117539
    170 H79         8.0090    1.4310    2.7090 h1        1 MOL      0.117539
    171 H80         6.6010    0.6680    3.4860 h1        1 MOL      0.117539
    172 H81         6.5910   -0.3840    0.9130 hn        1 MOL     -0.096087
    173 Ca1        -1.5120   -0.2020   -1.5240 Ca        1 MOL      1.769719
    174 O23        -1.1020   -2.8170   -2.2870 oh        1 MOL     -0.767249
    175 H82        -0.2770   -3.2910   -2.2010 ho        1 MOL      0.389363
    176 H83        -1.7570   -3.4980   -2.4580 ho        1 MOL      0.389363
    177 O24        -1.0960   -0.6480   -4.1870 oh        1 MOL     -0.767249
    178 H84        -0.7820    0.0160   -4.8020 ho        1 MOL      0.389363
    179 H85        -0.6740   -1.4580   -4.4750 ho        1 MOL      0.389363
@<TRIPOS>BOND
     1    1    2 1   
     2    1    4 1   
     3    1    5 1   
     4    1    6 1   
     5    2    3 2   
     6    2    7 1   
     7    7    8 1   
     8    7   15 1   
     9    8    9 1   
    10    8   11 1   
    11    8   16 1   
    12    9   10 2   
    13    9   19 1   
    14   11   12 1   
    15   11   17 1   
    16   11   18 1   
    17   12   13 1   
    18   12   14 1   
    19   19   20 1   
    20   19   28 1   
    21   20   21 1   
    22   20   23 1   
    23   20   29 1   
    24   21   22 2   
    25   21   41 1   
    26   23   24 1   
    27   23   30 1   
    28   23   31 1   
    29   24   25 1   
    30   24   32 1   
    31   24   33 1   
    32   25   26 1   
    33   25   34 1   
    34   25   35 1   
    35   26   27 1   
    36   26   36 1   
    37   26   37 1   
    38   27   38 1   
    39   27   39 1   
    40   27   40 1   
    41   41   42 1   
    42   41   49 1   
    43   42   43 1   
    44   42   45 1   
    45   42   50 1   
    46   43   44 2   
    47   43   53 1   
    48   45   46 1   
    49   45   51 1   
    50   45   52 1   
    51   46   47 1   
    52   46   48 1   
    53   53   54 1   
    54   53   57 1   
    55   54   55 1   
    56   54   58 1   
    57   54   59 1   
    58   55   56 2   
    59   55   60 1   
    60   60   61 1   
    61   60   68 1   
    62   61   62 1   
    63   61   64 1   
    64   61   69 1   
    65   62   63 2   
    66   62   74 1   
    67   64   65 1   
    68   64   70 1   
    69   64   71 1   
    70   65   66 1   
    71   65   67 2   
    72   66   72 1   
    73   66   73 1   
    74   74   75 1   
    75   74   78 1   
    76   75   76 1   
    77   75   79 1   
    78   75   80 1   
    79   76   77 2   
    80   76   81 1   
    81   81   82 1   
    82   81   93 1   
    83   82   83 1   
    84   82   85 1   
    85   82   94 1   
    86   83   84 2   
    87   83  102 1   
    88   85   86 1   
    89   85   95 1   
    90   85   96 1   
    91   86   87 ar  
    92   86   88 ar  
    93   87   89 ar  
    94   87   97 1   
    95   88   90 ar  
    96   88   98 1   
    97   89   91 ar  
    98   89   99 1   
    99   90   91 ar  
   100   90  100 1   
   101   91   92 1   
   102   92  101 1   
   103  102  103 1   
   104  102  110 1   
   105  103  104 1   
   106  103  106 1   
   107  103  111 1   
   108  104  105 2   
   109  104  121 1   
   110  106  107 1   
   111  106  108 1   
   112  106  112 1   
   113  107  109 1   
   114  107  113 1   
   115  107  114 1   
   116  108  115 1   
   117  108  116 1   
   118  108  117 1   
   119  109  118 1   
   120  109  119 1   
   121  109  120 1   
   122  121  122 1   
   123  121  127 1   
   124  122  123 1   
   125  122  125 1   
   126  122  128 1   
   127  123  124 2   
   128  123  132 1   
   129  125  126 1   
   130  125  129 1   
   131  125  130 1   
   132  126  131 1   
   133  132  133 1   
   134  132  137 1   
   135  133  134 1   
   136  133  136 1   
   137  133  138 1   
   138  134  135 2   
   139  134  142 1   
   140  136  139 1   
   141  136  140 1   
   142  136  141 1   
   143  142  143 1   
   144  142  147 1   
   145  143  144 1   
   146  143  146 1   
   147  143  148 1   
   148  144  145 2   
   149  144  152 1   
   150  146  149 1   
   151  146  150 1   
   152  146  151 1   
   153  152  153 1   
   154  152  161 1   
   155  153  154 1   
   156  153  156 1   
   157  153  162 1   
   158  154  155 2   
   159  154  167 1   
   160  156  157 1   
   161  156  163 1   
   162  156  164 1   
   163  157  158 1   
   164  157  165 1   
   165  157  166 1   
   166  158  159 1   
   167  158  160 1   
   168  167  168 1   
   169  167  172 1   
   170  168  169 1   
   171  168  170 1   
   172  168  171 1   
   173  174  175 1   
   174  174  176 1   
   175  177  178 1   
   176  177  179 1   
@<TRIPOS>SUBSTRUCTURE
     1 MOL         1 TEMP              0 ****  ****    0 ROOT
