@<TRIPOS>MOLECULE
MOL
  189   185     1     0     0
SMALL
resp


@<TRIPOS>ATOM
      1 C1          0.8440    3.6240   -5.4140 c3        1 MOL     -0.224682
      2 C2          0.9180    2.7930   -4.1290 c         1 MOL      0.820958
      3 O1         -0.0430    2.6400   -3.4240 o         1 MOL     -0.636817
      4 H1         -0.1720    3.9960   -5.5480 hc        1 MOL      0.046759
      5 H2          1.5320    4.4660   -5.3430 hc        1 MOL      0.046759
      6 H3          1.1180    3.0020   -6.2660 hc        1 MOL      0.046759
      7 N1          2.0480    2.1320   -3.7910 n         1 MOL     -0.624821
      8 C3          2.4380    1.7170   -2.4430 c3        1 MOL      0.055996
      9 C4          2.8750    3.0440   -1.6970 c         1 MOL      0.425979
     10 O2          3.7860    3.7100   -2.1000 o         1 MOL     -0.565941
     11 C5          3.5710    0.6500   -2.5120 c3        1 MOL     -0.131422
     12 C6          4.1230    0.3630   -1.1400 c         1 MOL      0.762994
     13 O3          3.3990    0.5090   -0.1070 o         1 MOL     -0.687846
     14 O4          5.2980   -0.0430   -1.0530 o         1 MOL     -0.687846
     15 H4          2.7650    2.1310   -4.5040 hn        1 MOL      0.304277
     16 H5          1.5730    1.2770   -1.9420 h1        1 MOL      0.023207
     17 H6          4.4100    1.0640   -3.0580 hc        1 MOL      0.035884
     18 H7          3.2980   -0.3150   -2.9460 hc        1 MOL      0.035884
     19 N2          2.2290    3.2980   -0.5490 n         1 MOL     -0.005205
     20 C7          2.4120    4.5010    0.2730 c3        1 MOL     -0.017925
     21 C8          3.2800    4.3400    1.5450 c         1 MOL      0.541056
     22 O5          3.3800    5.2930    2.2960 o         1 MOL     -0.552859
     23 C9          0.9810    5.0120    0.6160 c3        1 MOL      0.116850
     24 C10         0.0660    5.2730   -0.6700 c3        1 MOL     -0.121253
     25 C11         0.7260    6.1930   -1.6420 c3        1 MOL     -0.278933
     26 C12        -0.2540    7.0450   -2.4900 c3        1 MOL      0.170566
     27 N3          0.5050    7.9080   -3.4780 n4        1 MOL     -0.417644
     28 H8          1.5200    2.6580   -0.2230 hn        1 MOL      0.141255
     29 H9          2.9480    5.2640   -0.2880 h1        1 MOL      0.008271
     30 H10         0.9830    5.8780    1.2850 hc        1 MOL      0.008947
     31 H11         0.5160    4.2170    1.1800 hc        1 MOL      0.008947
     32 H12        -0.8550    5.6950   -0.2700 hc        1 MOL      0.083327
     33 H13        -0.1020    4.3270   -1.1870 hc        1 MOL      0.083327
     34 H14         1.5200    5.6760   -2.1840 hc        1 MOL      0.074405
     35 H15         1.2600    6.8710   -0.9810 hc        1 MOL      0.074405
     36 H16        -0.8670    7.6940   -1.8590 hx        1 MOL      0.066794
     37 H17        -1.0160    6.4510   -3.0110 hx        1 MOL      0.066794
     38 H18         1.2570    8.3620   -2.9820 hn        1 MOL      0.334996
     39 H19         0.9180    7.2900   -4.1650 hn        1 MOL      0.334996
     40 H20        -0.0610    8.5970   -3.9450 hn        1 MOL      0.334996
     41 N4          3.8990    3.1840    1.8240 n         1 MOL     -0.427444
     42 C13         4.7350    2.9750    2.9900 c3        1 MOL      0.052060
     43 C14         6.1270    2.3130    2.7200 c         1 MOL      0.437375
     44 O6          6.8760    2.0000    3.6770 o         1 MOL     -0.521646
     45 C15         3.9830    2.1470    4.0480 c3        1 MOL      0.212120
     46 C16         2.4270    2.0070    3.9690 c         1 MOL      0.473567
     47 O7          1.6960    2.9470    4.3670 o         1 MOL     -0.601796
     48 O8          1.9760    0.9630    3.4240 o         1 MOL     -0.601796
     49 H21         3.8540    2.3970    1.1870 hn        1 MOL      0.158358
     50 H22         4.9370    3.9750    3.3880 h1        1 MOL      0.081841
     51 H23         4.2730    2.5910    4.9940 hc        1 MOL     -0.051070
     52 H24         4.3690    1.1220    4.0710 hc        1 MOL     -0.051070
     53 N5          6.4690    2.1140    1.4280 n         1 MOL     -0.389153
     54 C17         7.8090    1.5790    1.0400 c3        1 MOL     -0.051441
     55 C18         8.0570    0.0310    1.2830 c         1 MOL      0.450116
     56 O9          9.1420   -0.4810    1.2480 o         1 MOL     -0.554353
     57 H25         5.8080    2.2990    0.6760 hn        1 MOL      0.267184
     58 H26         8.6500    2.2240    1.3090 h1        1 MOL      0.088474
     59 H27         7.9050    1.6850   -0.0340 h1        1 MOL      0.088474
     60 N6          6.9890   -0.7780    1.3520 n         1 MOL     -0.212195
     61 C19         7.0340   -2.2220    1.6810 c3        1 MOL     -0.054561
     62 C20         6.9380   -3.1180    0.4270 c         1 MOL      0.368587
     63 O10         7.0690   -4.3500    0.5600 o         1 MOL     -0.522992
     64 C21         5.8600   -2.6190    2.6190 c3        1 MOL     -0.286292
     65 C22         4.4670   -2.1340    2.1850 c         1 MOL      0.780693
     66 O11         3.8000   -2.6530    1.2630 o         1 MOL     -0.757159
     67 O12         3.9910   -1.1060    2.7100 o         1 MOL     -0.757159
     68 H28         6.0800   -0.3450    1.3210 hn        1 MOL      0.300050
     69 H29         7.9520   -2.4380    2.2170 h1        1 MOL      0.143783
     70 H30         6.1100   -2.4680    3.6730 hc        1 MOL      0.094262
     71 H31         5.8450   -3.7090    2.6200 hc        1 MOL      0.094262
     72 N7          6.4760   -2.6040   -0.7240 n         1 MOL     -0.085972
     73 C23         6.1730   -3.3950   -1.8830 c3        1 MOL     -0.126514
     74 C24         4.7950   -4.0820   -2.1650 c         1 MOL      0.621069
     75 O13         4.6770   -4.9410   -3.0050 o         1 MOL     -0.589718
     76 H32         6.2050   -1.6350   -0.6660 hn        1 MOL      0.122926
     77 H33         6.9940   -4.0750   -2.1050 h1        1 MOL      0.054562
     78 H34         6.1610   -2.5830   -2.6100 h1        1 MOL      0.054562
     79 N8          3.8090   -3.7150   -1.3480 n         1 MOL     -0.257779
     80 C25         2.4370   -4.2150   -1.4730 c3        1 MOL     -0.241386
     81 C26         1.3290   -3.1310   -1.3470 c         1 MOL      0.679428
     82 O14         1.5200   -2.0820   -0.7540 o         1 MOL     -0.670525
     83 C27         2.1370   -5.2830   -0.3720 c3        1 MOL      0.571995
     84 C28         2.2940   -6.6830   -1.0410 c3        1 MOL     -0.499849
     85 O15         3.1290   -5.2400    0.6110 oh        1 MOL     -0.672177
     86 H35         4.0630   -3.0510   -0.6260 hn        1 MOL      0.216642
     87 H36         2.3030   -4.7000   -2.4400 h1        1 MOL      0.105945
     88 H37         1.1820   -5.1770    0.1290 h1        1 MOL     -0.064898
     89 H38         3.2690   -4.3040    0.7770 ho        1 MOL      0.473529
     90 H39         2.0410   -7.4810   -0.3470 hc        1 MOL      0.121707
     91 H40         1.6320   -6.7860   -1.9010 hc        1 MOL      0.121707
     92 H41         3.3050   -6.7940   -1.4130 hc        1 MOL      0.121707
     93 N9          0.2010   -3.4420   -1.9570 n         1 MOL     -0.688860
     94 C29        -0.9780   -2.5580   -2.0770 c3        1 MOL      0.029250
     95 C30        -2.2160   -3.2900   -1.4230 c         1 MOL      0.562571
     96 O16        -2.5260   -4.3950   -1.8300 o         1 MOL     -0.546022
     97 C31        -1.1340   -2.1130   -3.5430 c3        1 MOL     -0.016850
     98 C32         0.1440   -1.4610   -4.0620 c3        1 MOL      0.283299
     99 C33        -2.2970   -1.2050   -3.8560 c3        1 MOL     -0.496210
    100 C34         0.1980   -1.0020   -5.5000 c3        1 MOL     -0.397908
    101 H42         0.1870   -4.3680   -2.3620 hn        1 MOL      0.335418
    102 H43        -0.7060   -1.7220   -1.4390 h1        1 MOL      0.187816
    103 H44        -1.2520   -3.0100   -4.1460 hc        1 MOL      0.029507
    104 H45         0.9970   -2.1420   -3.9770 hc        1 MOL     -0.008846
    105 H46         0.2690   -0.5760   -3.4320 hc        1 MOL     -0.008846
    106 H47        -2.6040   -1.3580   -4.8940 hc        1 MOL      0.124016
    107 H48        -3.1820   -1.4440   -3.2680 hc        1 MOL      0.124016
    108 H49        -2.1020   -0.1680   -3.5970 hc        1 MOL      0.124016
    109 H50         1.2780   -0.8910   -5.6280 hc        1 MOL      0.092798
    110 H51        -0.1610   -1.8870   -6.0250 hc        1 MOL      0.092798
    111 H52        -0.3570   -0.1050   -5.7420 hc        1 MOL      0.092798
    112 N10        -2.7110   -2.6810   -0.3730 n         1 MOL     -0.241799
    113 C35        -3.9990   -2.9740    0.1570 c3        1 MOL      0.077910
    114 C36        -5.2080   -2.3200   -0.5120 c         1 MOL      0.212459
    115 O17        -5.1420   -1.5160   -1.4120 o         1 MOL     -0.214478
    116 C37        -3.9780   -2.4520    1.6710 c3        1 MOL      0.087691
    117 C38        -2.8440   -2.9450    2.5120 c3        1 MOL     -0.920614
    118 O18        -3.9390   -1.0650    1.6440 oh        1 MOL     -0.338064
    119 H53        -2.3620   -1.7850   -0.0780 hn        1 MOL      0.140576
    120 H54        -4.0780   -4.0610    0.1250 h1        1 MOL      0.068243
    121 H55        -4.9390   -2.7800    2.0870 h1        1 MOL      0.020843
    122 H56        -3.6390   -0.7240    2.4950 ho        1 MOL      0.368832
    123 H57        -3.0010   -2.7070    3.5600 hc        1 MOL      0.264227
    124 H58        -2.7750   -4.0250    2.3540 hc        1 MOL      0.264227
    125 H59        -1.8340   -2.5850    2.3220 hc        1 MOL      0.264227
    126 N11        -6.3670   -2.6660   -0.0390 n         1 MOL     -0.198496
    127 C39        -7.6080   -2.0240   -0.3640 c3        1 MOL     -0.180362
    128 C40        -7.5120   -0.5160   -0.2760 c         1 MOL      0.509181
    129 O19        -7.7410    0.1540   -1.2670 o         1 MOL     -0.465720
    130 C41        -8.8600   -2.5540    0.4130 c3        1 MOL      0.356006
    131 C42        -9.4100   -3.9100   -0.0650 c3        1 MOL     -0.507130
    132 O20        -8.6270   -2.6190    1.7650 oh        1 MOL     -0.676362
    133 H60        -6.3660   -3.3660    0.6920 hn        1 MOL      0.244057
    134 H61        -7.7550   -2.1600   -1.4340 h1        1 MOL      0.136647
    135 H62        -9.6580   -1.8250    0.2310 h1        1 MOL      0.026287
    136 H63        -9.3900   -2.9140    2.2590 ho        1 MOL      0.425974
    137 H64        -8.8160   -4.7440    0.3290 hc        1 MOL      0.145411
    138 H65       -10.4360   -4.0070    0.3030 hc        1 MOL      0.145411
    139 H66        -9.3650   -3.8920   -1.1530 hc        1 MOL      0.145411
    140 N12        -7.0520    0.0640    0.8770 n         1 MOL     -0.492833
    141 C43        -6.8650    1.5220    1.1130 c3        1 MOL      0.061421
    142 C44        -6.0610    2.1810    0.0170 c         1 MOL      0.328081
    143 O21        -6.3210    3.3170   -0.3820 o         1 MOL     -0.514836
    144 C45        -6.3730    1.8520    2.4320 c3        1 MOL     -0.246823
    145 C46        -7.2230    1.3920    3.6140 c3        1 MOL      0.098840
    146 C47        -6.5800    1.7700    4.9860 c3        1 MOL      0.074121
    147 C48        -7.4060    1.4970    6.2090 c3        1 MOL     -0.240985
    148 N13        -7.7220    0.0770    6.3440 n4        1 MOL     -0.156784
    149 H67        -6.7660   -0.5100    1.6490 hn        1 MOL      0.304770
    150 H68        -7.8050    2.0690    1.0420 h1        1 MOL      0.105100
    151 H69        -6.3460    2.9390    2.5160 hc        1 MOL      0.092925
    152 H70        -5.4270    1.3320    2.5840 hc        1 MOL      0.092925
    153 H71        -7.2990    0.3110    3.5160 hc        1 MOL     -0.018945
    154 H72        -8.1880    1.8930    3.5530 hc        1 MOL     -0.018945
    155 H73        -6.3690    2.8340    4.9390 hc        1 MOL      0.022866
    156 H74        -5.6180    1.2720    5.0220 hc        1 MOL      0.022866
    157 H75        -8.3150    2.0730    6.0640 hx        1 MOL      0.167907
    158 H76        -6.8760    1.7870    7.1110 hx        1 MOL      0.167907
    159 H77        -6.9270   -0.5440    6.2530 hn        1 MOL      0.248372
    160 H78        -8.1300   -0.1010    7.2510 hn        1 MOL      0.248372
    161 H79        -8.3920   -0.2470    5.6630 hn        1 MOL      0.248372
    162 N14        -5.0690    1.4500   -0.4540 n         1 MOL      0.061046
    163 C49        -3.9920    1.9150   -1.3410 c3        1 MOL     -0.129603
    164 C50        -4.4380    1.7840   -2.8640 c         1 MOL      0.371470
    165 O22        -4.0920    2.5590   -3.7680 o         1 MOL     -0.534068
    166 C51        -2.6690    1.1800   -1.0840 c3        1 MOL      0.010758
    167 C52        -1.9110    1.8200    0.0950 c3        1 MOL      0.005540
    168 C53        -0.6400    0.9040    0.3850 c         1 MOL      0.640993
    169 O23        -0.6700   -0.3200    0.4370 o         1 MOL     -0.657784
    170 O24         0.4640    1.4530    0.5650 o         1 MOL     -0.657784
    171 H80        -4.9890    0.4930   -0.1160 hn        1 MOL      0.101968
    172 H81        -3.7740    2.9710   -1.1820 h1        1 MOL      0.092542
    173 H82        -2.0370    1.3460   -1.9550 hc        1 MOL      0.080200
    174 H83        -2.8790    0.1390   -0.8350 hc        1 MOL      0.080200
    175 H84        -2.6040    1.8100    0.9330 hc        1 MOL     -0.069755
    176 H85        -1.6610    2.8630   -0.0550 hc        1 MOL     -0.069755
    177 N15        -5.2760    0.7490   -3.1130 n         1 MOL     -0.017222
    178 C54        -5.7920    0.4200   -4.4660 c3        1 MOL     -0.325892
    179 H86        -6.8780    0.3360   -4.4310 h1        1 MOL      0.115650
    180 H87        -5.5120    1.2100   -5.1640 h1        1 MOL      0.115650
    181 H88        -5.3650   -0.5260   -4.7980 h1        1 MOL      0.115650
    182 H89        -5.5300    0.1610   -2.3340 hn        1 MOL      0.035707
    183 Ca1         1.7910   -0.6710    1.3760 Ca        1 MOL      1.680524
    184 O25        -0.1420   -0.5850    3.4900 oh        1 MOL     -0.840555
    185 H90         0.3480    0.1960    3.7340 ho        1 MOL      0.388699
    186 H91        -0.2520   -1.0720    4.3170 ho        1 MOL      0.388699
    187 O26         1.0430   -2.9510    2.4390 oh        1 MOL     -0.840555
    188 H92         0.3470   -2.9210    3.0960 ho        1 MOL      0.388699
    189 H93         1.3700   -3.8490    2.4870 ho        1 MOL      0.388699
@<TRIPOS>BOND
     1    1    2 1   
     2    1    4 1   
     3    1    5 1   
     4    1    6 1   
     5    2    3 2   
     6    2    7 1   
     7    7    8 1   
     8    7   15 1   
     9    8    9 1   
    10    8   11 1   
    11    8   16 1   
    12    9   10 2   
    13    9   19 1   
    14   11   12 1   
    15   11   17 1   
    16   11   18 1   
    17   12   13 1   
    18   12   14 1   
    19   19   20 1   
    20   19   28 1   
    21   20   21 1   
    22   20   23 1   
    23   20   29 1   
    24   21   22 2   
    25   21   41 1   
    26   23   24 1   
    27   23   30 1   
    28   23   31 1   
    29   24   25 1   
    30   24   32 1   
    31   24   33 1   
    32   25   26 1   
    33   25   34 1   
    34   25   35 1   
    35   26   27 1   
    36   26   36 1   
    37   26   37 1   
    38   27   38 1   
    39   27   39 1   
    40   27   40 1   
    41   41   42 1   
    42   41   49 1   
    43   42   43 1   
    44   42   45 1   
    45   42   50 1   
    46   43   44 2   
    47   43   53 1   
    48   45   46 1   
    49   45   51 1   
    50   45   52 1   
    51   46   47 1   
    52   46   48 1   
    53   53   54 1   
    54   53   57 1   
    55   54   55 1   
    56   54   58 1   
    57   54   59 1   
    58   55   56 2   
    59   55   60 1   
    60   60   61 1   
    61   60   68 1   
    62   61   62 1   
    63   61   64 1   
    64   61   69 1   
    65   62   63 2   
    66   62   72 1   
    67   64   65 1   
    68   64   70 1   
    69   64   71 1   
    70   65   66 1   
    71   65   67 1   
    72   72   73 1   
    73   72   76 1   
    74   73   74 1   
    75   73   77 1   
    76   73   78 1   
    77   74   75 2   
    78   74   79 1   
    79   79   80 1   
    80   79   86 1   
    81   80   81 1   
    82   80   83 1   
    83   80   87 1   
    84   81   82 2   
    85   81   93 1   
    86   83   84 1   
    87   83   85 1   
    88   83   88 1   
    89   84   90 1   
    90   84   91 1   
    91   84   92 1   
    92   85   89 1   
    93   93   94 1   
    94   93  101 1   
    95   94   95 1   
    96   94   97 1   
    97   94  102 1   
    98   95   96 2   
    99   95  112 1   
   100   97   98 1   
   101   97   99 1   
   102   97  103 1   
   103   98  100 1   
   104   98  104 1   
   105   98  105 1   
   106   99  106 1   
   107   99  107 1   
   108   99  108 1   
   109  100  109 1   
   110  100  110 1   
   111  100  111 1   
   112  112  113 1   
   113  112  119 1   
   114  113  114 1   
   115  113  116 1   
   116  113  120 1   
   117  114  115 2   
   118  114  126 1   
   119  116  117 1   
   120  116  118 1   
   121  116  121 1   
   122  117  123 1   
   123  117  124 1   
   124  117  125 1   
   125  118  122 1   
   126  126  127 1   
   127  126  133 1   
   128  127  128 1   
   129  127  130 1   
   130  127  134 1   
   131  128  129 2   
   132  128  140 1   
   133  130  131 1   
   134  130  132 1   
   135  130  135 1   
   136  131  137 1   
   137  131  138 1   
   138  131  139 1   
   139  132  136 1   
   140  140  141 1   
   141  140  149 1   
   142  141  142 1   
   143  141  144 1   
   144  141  150 1   
   145  142  143 2   
   146  142  162 1   
   147  144  145 1   
   148  144  151 1   
   149  144  152 1   
   150  145  146 1   
   151  145  153 1   
   152  145  154 1   
   153  146  147 1   
   154  146  155 1   
   155  146  156 1   
   156  147  148 1   
   157  147  157 1   
   158  147  158 1   
   159  148  159 1   
   160  148  160 1   
   161  148  161 1   
   162  162  163 1   
   163  162  171 1   
   164  163  164 1   
   165  163  166 1   
   166  163  172 1   
   167  164  165 2   
   168  164  177 1   
   169  166  167 1   
   170  166  173 1   
   171  166  174 1   
   172  167  168 1   
   173  167  175 1   
   174  167  176 1   
   175  168  169 1   
   176  168  170 1   
   177  177  178 1   
   178  177  182 1   
   179  178  179 1   
   180  178  180 1   
   181  178  181 1   
   182  184  185 1   
   183  184  186 1   
   184  187  188 1   
   185  187  189 1   
@<TRIPOS>SUBSTRUCTURE
     1 MOL         1 TEMP              0 ****  ****    0 ROOT
