@<TRIPOS>MOLECULE
MOL
  179   176     1     0     0
SMALL
resp


@<TRIPOS>ATOM
      1 C1         -1.2060    4.3510    6.3270 c3        1 MOL     -0.318343
      2 C2         -1.0830    4.0320    4.8540 c         1 MOL      0.737970
      3 O1         -0.1940    4.4570    4.1450 o         1 MOL     -0.590673
      4 H1         -1.5440    5.3800    6.4480 hc        1 MOL      0.081896
      5 H2         -1.9280    3.6770    6.7860 hc        1 MOL      0.081896
      6 H3         -0.2360    4.2290    6.8080 hc        1 MOL      0.081896
      7 N1         -2.0540    3.2510    4.3070 n         1 MOL     -0.601336
      8 C3         -1.8840    2.7660    2.8820 c3        1 MOL     -0.036273
      9 C4         -2.3960    3.8440    1.9570 c         1 MOL      0.637751
     10 O2         -3.4820    4.3780    2.0390 o         1 MOL     -0.567993
     11 C5         -2.6380    1.5130    2.5610 c3        1 MOL     -0.159189
     12 C6         -2.5640    0.9480    1.1590 c         1 MOL      0.823278
     13 O3         -1.7220    1.3970    0.3800 o         1 MOL     -0.772957
     14 O4         -3.3210    0.0650    0.6790 o         1 MOL     -0.772957
     15 H4         -2.8000    2.9410    4.9180 hn        1 MOL      0.336333
     16 H5         -0.8150    2.5950    2.7470 h1        1 MOL      0.106273
     17 H6         -3.6940    1.6130    2.8140 hc        1 MOL      0.045922
     18 H7         -2.2170    0.7220    3.1830 hc        1 MOL      0.045922
     19 N2         -1.5720    4.2530    1.0070 n         1 MOL     -0.284199
     20 C7         -1.6640    5.5820    0.2770 c3        1 MOL     -0.055405
     21 C8         -2.6520    5.6000   -0.8930 c         1 MOL      0.593244
     22 O5         -3.2910    6.6380   -1.0520 o         1 MOL     -0.579311
     23 C9         -0.2230    6.1030   -0.1800 c3        1 MOL     -0.069297
     24 C10        -0.0750    7.6170   -0.1420 c3        1 MOL      0.064892
     25 C11         1.3450    8.1120   -0.4290 c3        1 MOL      0.077454
     26 C12         1.3280    9.5650   -1.0420 c3        1 MOL     -0.001519
     27 N3          2.6770   10.0490   -1.2800 n4        1 MOL     -0.263549
     28 H8         -0.7550    3.6750    0.8280 hn        1 MOL      0.227136
     29 H9         -2.0420    6.3410    0.9550 h1        1 MOL      0.074847
     30 H10        -0.0570    5.7340   -1.1900 hc        1 MOL      0.041135
     31 H11         0.5150    5.7240    0.5320 hc        1 MOL      0.041135
     32 H12        -0.2770    8.1700    0.7760 hc        1 MOL      0.006617
     33 H13        -0.7750    7.9620   -0.8960 hc        1 MOL      0.006617
     34 H14         1.8310    7.4320   -1.1240 hc        1 MOL     -0.002547
     35 H15         1.9550    8.1100    0.4770 hc        1 MOL     -0.002547
     36 H16         0.7400   10.1750   -0.3540 hx        1 MOL      0.078065
     37 H17         0.8180    9.4770   -2.0070 hx        1 MOL      0.078065
     38 H18         3.0830    9.7270   -2.1440 hn        1 MOL      0.304709
     39 H19         2.8410   11.0460   -1.3680 hn        1 MOL      0.304709
     40 H20         3.2560    9.7160   -0.5150 hn        1 MOL      0.304709
     41 N4         -2.7840    4.4800   -1.5890 n         1 MOL     -0.457812
     42 C13        -3.8440    4.1560   -2.5400 c3        1 MOL      0.109167
     43 C14        -5.0450    3.3590   -1.9630 c         1 MOL      0.336115
     44 O6         -6.1040    3.2390   -2.6730 o         1 MOL     -0.524191
     45 C15        -3.1900    3.2940   -3.6310 c3        1 MOL     -0.324570
     46 C16        -2.5160    2.1270   -2.9260 c         1 MOL      0.813069
     47 O7         -1.3090    2.3090   -2.5530 o         1 MOL     -0.754958
     48 O8         -3.1910    1.1430   -2.6120 o         1 MOL     -0.754958
     49 H21        -2.0600    3.7950   -1.4050 hn        1 MOL      0.303637
     50 H22        -4.2610    5.0690   -2.9540 h1        1 MOL      0.106287
     51 H23        -2.5270    3.8020   -4.3210 hc        1 MOL      0.085597
     52 H24        -3.9550    2.9220   -4.3070 hc        1 MOL      0.085597
     53 N5         -5.0510    2.9810   -0.6770 n         1 MOL      0.004526
     54 C17        -6.1840    2.6330    0.1380 c3        1 MOL     -0.203957
     55 C18        -6.7510    1.1890   -0.1830 c         1 MOL      0.434579
     56 O9         -7.9270    0.8600    0.1360 o         1 MOL     -0.544826
     57 H25        -4.1970    3.0610   -0.1420 hn        1 MOL      0.074429
     58 H26        -6.9850    3.3460   -0.0360 h1        1 MOL      0.122230
     59 H27        -6.0030    2.6960    1.2070 h1        1 MOL      0.122230
     60 N6         -5.9660    0.2580   -0.8240 n         1 MOL     -0.112850
     61 C19        -6.3950   -1.0990   -1.1690 c3        1 MOL     -0.292174
     62 C20        -6.0880   -2.0940   -0.1070 c         1 MOL      0.369685
     63 O10        -6.4120   -3.2590   -0.2480 o         1 MOL     -0.458036
     64 C21        -5.8250   -1.5640   -2.5840 c3        1 MOL     -0.004083
     65 C22        -4.3530   -1.9760   -2.6710 c         1 MOL      0.634600
     66 N7         -3.8440   -2.4810   -3.7820 n         1 MOL     -0.716106
     67 O11        -3.6110   -1.7800   -1.7340 o         1 MOL     -0.558874
     68 H28        -5.0850    0.5870   -1.2020 hn        1 MOL      0.199508
     69 H29        -7.4800   -1.1200   -1.2610 h1        1 MOL      0.191905
     70 H30        -5.9330   -0.8170   -3.3810 hc        1 MOL      0.047969
     71 H31        -6.4340   -2.3600   -3.0070 hc        1 MOL      0.047969
     72 H32        -4.4460   -2.5390   -4.5980 hn        1 MOL      0.332909
     73 H33        -2.9220   -2.9080   -3.8200 hn        1 MOL      0.332909
     74 N8         -5.6080   -1.6690    1.0460 n         1 MOL     -0.053179
     75 C23        -5.5170   -2.4790    2.2800 c3        1 MOL     -0.342892
     76 C24        -4.1810   -3.3390    2.2930 c         1 MOL      0.620645
     77 O12        -4.1070   -4.2730    3.0750 o         1 MOL     -0.552362
     78 H34        -5.1960   -0.7550    1.0680 hn        1 MOL      0.164444
     79 H35        -6.3160   -3.2010    2.4130 h1        1 MOL      0.141186
     80 H36        -5.5760   -1.7310    3.0720 h1        1 MOL      0.141186
     81 N9         -3.1870   -2.9660    1.4540 n         1 MOL     -0.417585
     82 C25        -1.9100   -3.6720    1.2160 c3        1 MOL      0.334558
     83 C26        -0.6280   -2.7170    1.2510 c         1 MOL      0.325148
     84 O13        -0.7390   -1.6450    0.7900 o         1 MOL     -0.535589
     85 C27        -1.9730   -4.4930   -0.0520 c3        1 MOL      0.057928
     86 C28        -2.9520   -5.5890    0.0180 ca        1 MOL     -0.161944
     87 C29        -4.1920   -5.4700   -0.7230 ca        1 MOL     -0.029270
     88 C30        -2.6910   -6.6830    0.8220 ca        1 MOL     -0.029270
     89 C31        -5.0300   -6.6110   -0.7320 ca        1 MOL     -0.287616
     90 C32        -3.5530   -7.7300    0.8830 ca        1 MOL     -0.287616
     91 C33        -4.7390   -7.7180    0.0740 ca        1 MOL      0.363851
     92 O14        -5.6170   -8.7540    0.1090 oh        1 MOL     -0.505534
     93 H37        -3.3320   -2.1020    0.9470 hn        1 MOL      0.215328
     94 H38        -1.8510   -4.3730    2.0460 h1        1 MOL     -0.018583
     95 H39        -0.9730   -4.8780   -0.2440 hc        1 MOL     -0.020314
     96 H40        -2.2330   -3.8720   -0.9040 hc        1 MOL     -0.020314
     97 H41        -4.3780   -4.7050   -1.4690 ha        1 MOL      0.089795
     98 H42        -1.7400   -6.6940    1.3300 ha        1 MOL      0.089795
     99 H43        -5.8820   -6.5510   -1.3990 ha        1 MOL      0.137358
    100 H44        -3.3060   -8.6240    1.4350 ha        1 MOL      0.137358
    101 H45        -5.4470   -9.3470    0.8410 ho        1 MOL      0.371281
    102 N10         0.4620   -3.1730    1.9120 n         1 MOL     -0.518043
    103 C34         1.6880   -2.4040    1.8040 c3        1 MOL      0.084546
    104 C35         2.8100   -3.3380    1.3030 c         1 MOL      0.596934
    105 O15         3.0710   -4.3220    1.9840 o         1 MOL     -0.563331
    106 C36         1.9370   -1.4920    2.9940 c3        1 MOL     -0.061567
    107 C37         0.7840   -0.4370    3.2460 c3        1 MOL      0.065504
    108 C38         3.3320   -0.8720    2.7980 c3        1 MOL      0.043663
    109 C39         0.9570    0.5630    4.4260 c3        1 MOL     -0.114370
    110 H46         0.4820   -3.9620    2.5450 hn        1 MOL      0.334368
    111 H47         1.6090   -1.6400    1.0310 h1        1 MOL      0.051182
    112 H48         2.0890   -2.2230    3.7900 hc        1 MOL      0.023089
    113 H49        -0.1190   -1.0070    3.4400 hc        1 MOL      0.029237
    114 H50         0.6280    0.1420    2.3350 hc        1 MOL      0.029237
    115 H51         3.5860   -0.3960    3.7420 hc        1 MOL     -0.000394
    116 H52         4.0320   -1.6990    2.7070 hc        1 MOL     -0.000394
    117 H53         3.4280   -0.1980    1.9370 hc        1 MOL     -0.000394
    118 H54         1.7330    1.2850    4.2060 hc        1 MOL      0.021031
    119 H55         0.0710    1.1090    4.7570 hc        1 MOL      0.021031
    120 H56         1.2280   -0.0900    5.2550 hc        1 MOL      0.021031
    121 N11         3.3780   -3.0560    0.1380 n         1 MOL     -0.397293
    122 C40         4.6210   -3.7200   -0.3280 c3        1 MOL     -0.030621
    123 C41         5.8410   -2.9550    0.1440 c         1 MOL      0.541309
    124 O16         5.6710   -1.8660    0.6900 o         1 MOL     -0.487694
    125 C42         4.6120   -3.8050   -1.8460 c3        1 MOL      0.024058
    126 O17         4.7110   -2.5460   -2.4910 oh        1 MOL     -0.617727
    127 H57         3.1930   -2.1570   -0.2960 hn        1 MOL      0.226107
    128 H58         4.7060   -4.7090    0.1200 h1        1 MOL      0.079834
    129 H59         3.7300   -4.2630   -2.2960 h1        1 MOL      0.050681
    130 H60         5.4990   -4.4100   -2.0230 h1        1 MOL      0.050681
    131 H61         3.7980   -2.2830   -2.6330 ho        1 MOL      0.468287
    132 N12         7.0550   -3.5140   -0.1170 n         1 MOL     -0.486744
    133 C43         8.2980   -2.9910    0.4590 c3        1 MOL      0.221749
    134 C44         8.6870   -1.6500   -0.1790 c         1 MOL      0.438484
    135 O18         9.1680   -0.7970    0.5680 o         1 MOL     -0.523569
    136 C45         9.4980   -3.9080    0.3710 c3        1 MOL     -0.354163
    137 H62         6.9720   -4.4930   -0.3590 hn        1 MOL      0.289072
    138 H63         8.1920   -2.7680    1.5220 h1        1 MOL      0.056394
    139 H64         9.6800   -3.9680   -0.6990 hc        1 MOL      0.100803
    140 H65        10.3910   -3.4320    0.7780 hc        1 MOL      0.100803
    141 H66         9.3400   -4.8310    0.9350 hc        1 MOL      0.100803
    142 N13         8.3690   -1.3990   -1.4250 n         1 MOL     -0.316633
    143 C46         8.6420   -0.0360   -2.0000 c3        1 MOL      0.113797
    144 C47         7.6680    1.0240   -1.4220 c         1 MOL      0.403988
    145 O19         8.0880    2.1610   -1.1410 o         1 MOL     -0.522552
    146 C48         8.4620   -0.2950   -3.5080 c3        1 MOL     -0.300744
    147 H67         8.3280   -2.1760   -2.0670 hn        1 MOL      0.267404
    148 H68         9.6360    0.1880   -1.6240 h1        1 MOL      0.071483
    149 H69         8.9480    0.5250   -4.0440 hc        1 MOL      0.083966
    150 H70         8.8810   -1.2460   -3.8690 hc        1 MOL      0.083966
    151 H71         7.3970   -0.3390   -3.7500 hc        1 MOL      0.083966
    152 N14         6.3810    0.6550   -1.2300 n         1 MOL     -0.163810
    153 C49         5.4140    1.5330   -0.6660 c3        1 MOL     -0.124603
    154 C50         5.7190    1.7190    0.8280 c         1 MOL      0.414394
    155 O20         5.0210    2.5000    1.4650 o         1 MOL     -0.544928
    156 C51         3.9920    0.8830   -0.7640 c3        1 MOL      0.077972
    157 C52         3.5000    0.5970   -2.1390 c3        1 MOL     -0.259273
    158 C53         2.2590   -0.3210   -2.0700 c         1 MOL      0.941707
    159 O21         2.4290   -1.4980   -2.3810 o         1 MOL     -0.801447
    160 O22         1.1540    0.0770   -1.6860 o         1 MOL     -0.801447
    161 H72         6.1510   -0.2600   -1.5870 hn        1 MOL      0.184333
    162 H73         5.3940    2.5160   -1.1410 h1        1 MOL      0.112111
    163 H74         3.3080    1.4920   -0.1640 hc        1 MOL      0.038813
    164 H75         4.1000   -0.0160   -0.1450 hc        1 MOL      0.038813
    165 H76         4.2530    0.0320   -2.6940 hc        1 MOL      0.043115
    166 H77         3.2650    1.5100   -2.6940 hc        1 MOL      0.043115
    167 N15         6.6630    1.0060    1.4710 n         1 MOL     -0.141763
    168 C54         6.8060    1.1180    2.9750 c3        1 MOL     -0.155739
    169 H78         6.5300    2.1230    3.2920 h1        1 MOL      0.083980
    170 H79         6.1510    0.3920    3.4590 h1        1 MOL      0.083980
    171 H80         7.8400    0.9190    3.2590 h1        1 MOL      0.083980
    172 H81         7.1710    0.2950    0.9570 hn        1 MOL      0.160156
    173 Ca1        -1.3880   -0.3930   -1.4490 Ca        1 MOL      1.745550
    174 O23        -0.0340   -2.6280   -1.8140 oh        1 MOL     -0.794332
    175 H82         0.0440   -3.5720   -1.9730 ho        1 MOL      0.391927
    176 H83         0.8660   -2.3080   -1.8760 ho        1 MOL      0.391927
    177 O24        -1.0960   -1.2850   -4.1210 oh        1 MOL     -0.794332
    178 H84        -0.3330   -1.0270   -4.6450 ho        1 MOL      0.391927
    179 H85        -1.0710   -2.2330   -4.1220 ho        1 MOL      0.391927
@<TRIPOS>BOND
     1    1    2 1   
     2    1    4 1   
     3    1    5 1   
     4    1    6 1   
     5    2    3 2   
     6    2    7 1   
     7    7    8 1   
     8    7   15 1   
     9    8    9 1   
    10    8   11 1   
    11    8   16 1   
    12    9   10 2   
    13    9   19 1   
    14   11   12 1   
    15   11   17 1   
    16   11   18 1   
    17   12   13 1   
    18   12   14 1   
    19   19   20 1   
    20   19   28 1   
    21   20   21 1   
    22   20   23 1   
    23   20   29 1   
    24   21   22 2   
    25   21   41 1   
    26   23   24 1   
    27   23   30 1   
    28   23   31 1   
    29   24   25 1   
    30   24   32 1   
    31   24   33 1   
    32   25   26 1   
    33   25   34 1   
    34   25   35 1   
    35   26   27 1   
    36   26   36 1   
    37   26   37 1   
    38   27   38 1   
    39   27   39 1   
    40   27   40 1   
    41   41   42 1   
    42   41   49 1   
    43   42   43 1   
    44   42   45 1   
    45   42   50 1   
    46   43   44 2   
    47   43   53 1   
    48   45   46 1   
    49   45   51 1   
    50   45   52 1   
    51   46   47 1   
    52   46   48 1   
    53   53   54 1   
    54   53   57 1   
    55   54   55 1   
    56   54   58 1   
    57   54   59 1   
    58   55   56 2   
    59   55   60 1   
    60   60   61 1   
    61   60   68 1   
    62   61   62 1   
    63   61   64 1   
    64   61   69 1   
    65   62   63 2   
    66   62   74 1   
    67   64   65 1   
    68   64   70 1   
    69   64   71 1   
    70   65   66 1   
    71   65   67 2   
    72   66   72 1   
    73   66   73 1   
    74   74   75 1   
    75   74   78 1   
    76   75   76 1   
    77   75   79 1   
    78   75   80 1   
    79   76   77 2   
    80   76   81 1   
    81   81   82 1   
    82   81   93 1   
    83   82   83 1   
    84   82   85 1   
    85   82   94 1   
    86   83   84 2   
    87   83  102 1   
    88   85   86 1   
    89   85   95 1   
    90   85   96 1   
    91   86   87 ar  
    92   86   88 ar  
    93   87   89 ar  
    94   87   97 1   
    95   88   90 ar  
    96   88   98 1   
    97   89   91 ar  
    98   89   99 1   
    99   90   91 ar  
   100   90  100 1   
   101   91   92 1   
   102   92  101 1   
   103  102  103 1   
   104  102  110 1   
   105  103  104 1   
   106  103  106 1   
   107  103  111 1   
   108  104  105 2   
   109  104  121 1   
   110  106  107 1   
   111  106  108 1   
   112  106  112 1   
   113  107  109 1   
   114  107  113 1   
   115  107  114 1   
   116  108  115 1   
   117  108  116 1   
   118  108  117 1   
   119  109  118 1   
   120  109  119 1   
   121  109  120 1   
   122  121  122 1   
   123  121  127 1   
   124  122  123 1   
   125  122  125 1   
   126  122  128 1   
   127  123  124 2   
   128  123  132 1   
   129  125  126 1   
   130  125  129 1   
   131  125  130 1   
   132  126  131 1   
   133  132  133 1   
   134  132  137 1   
   135  133  134 1   
   136  133  136 1   
   137  133  138 1   
   138  134  135 2   
   139  134  142 1   
   140  136  139 1   
   141  136  140 1   
   142  136  141 1   
   143  142  143 1   
   144  142  147 1   
   145  143  144 1   
   146  143  146 1   
   147  143  148 1   
   148  144  145 2   
   149  144  152 1   
   150  146  149 1   
   151  146  150 1   
   152  146  151 1   
   153  152  153 1   
   154  152  161 1   
   155  153  154 1   
   156  153  156 1   
   157  153  162 1   
   158  154  155 2   
   159  154  167 1   
   160  156  157 1   
   161  156  163 1   
   162  156  164 1   
   163  157  158 1   
   164  157  165 1   
   165  157  166 1   
   166  158  159 1   
   167  158  160 1   
   168  167  168 1   
   169  167  172 1   
   170  168  169 1   
   171  168  170 1   
   172  168  171 1   
   173  174  175 1   
   174  174  176 1   
   175  177  178 1   
   176  177  179 1   
@<TRIPOS>SUBSTRUCTURE
     1 MOL         1 TEMP              0 ****  ****    0 ROOT
