@<TRIPOS>MOLECULE
MOL
  189   185     1     0     0
SMALL
resp


@<TRIPOS>ATOM
      1 C1         -0.6710    0.7570    6.7390 c3        1 MOL     -0.219970
      2 C2         -0.8890    0.9090    5.2260 c         1 MOL      0.734428
      3 O1         -0.1220    1.5730    4.5830 o         1 MOL     -0.588712
      4 H1         -1.5500    1.1180    7.2700 hc        1 MOL      0.054009
      5 H2         -0.5070   -0.2940    6.9790 hc        1 MOL      0.054009
      6 H3          0.2000    1.3380    7.0410 hc        1 MOL      0.054009
      7 N1         -1.9990    0.2960    4.7290 n         1 MOL     -0.799176
      8 C3         -2.4790    0.5880    3.3660 c3        1 MOL      0.381478
      9 C4         -2.7610    2.1810    3.1870 c         1 MOL      0.543266
     10 O2         -3.6580    2.6660    3.8260 o         1 MOL     -0.549222
     11 C5         -3.7530   -0.2420    3.0070 c3        1 MOL     -0.334114
     12 C6         -4.3810    0.2320    1.6540 c         1 MOL      0.669252
     13 O3         -5.5650    0.5870    1.6310 o         1 MOL     -0.597856
     14 O4         -3.6850    0.2820    0.6380 o         1 MOL     -0.597856
     15 H4         -2.5850   -0.2650    5.3240 hn        1 MOL      0.377614
     16 H5         -1.6650    0.2480    2.7240 h1        1 MOL     -0.081033
     17 H6         -4.4050   -0.1710    3.8790 hc        1 MOL      0.072168
     18 H7         -3.3290   -1.2510    2.9980 hc        1 MOL      0.072168
     19 N2         -1.9770    2.8850    2.3460 n         1 MOL     -0.082764
     20 C7         -1.9260    4.3960    2.3250 c3        1 MOL     -0.088544
     21 C8         -2.9950    4.9600    1.4200 c         1 MOL      0.452014
     22 O5         -3.4570    6.0850    1.6890 o         1 MOL     -0.555841
     23 C9         -0.6070    5.0110    1.8930 c3        1 MOL     -0.125778
     24 C10        -0.1190    4.7360    0.4720 c3        1 MOL      0.424952
     25 C11         1.3570    5.1540    0.4180 c3        1 MOL     -0.285392
     26 C12         1.8380    4.8350   -1.0390 c3        1 MOL      0.475850
     27 N3          3.0250    5.6690   -1.3650 n4        1 MOL     -0.530201
     28 H8         -1.3000    2.3890    1.7750 hn        1 MOL      0.031457
     29 H9         -1.9900    4.6660    3.3790 h1        1 MOL      0.102634
     30 H10         0.1440    4.6640    2.6080 hc        1 MOL      0.049357
     31 H11        -0.6650    6.1040    1.8870 hc        1 MOL      0.049357
     32 H12        -0.6810    5.2500   -0.3030 hc        1 MOL     -0.089338
     33 H13        -0.2680    3.6820    0.2010 hc        1 MOL     -0.089338
     34 H14         2.0030    4.4750    0.9730 hc        1 MOL      0.045155
     35 H15         1.4450    6.2250    0.5440 hc        1 MOL      0.045155
     36 H16         1.1030    5.0450   -1.8260 hx        1 MOL     -0.052719
     37 H17         2.0270    3.7670   -1.0440 hx        1 MOL     -0.052719
     38 H18         3.7350    5.6770   -0.6480 hn        1 MOL      0.342886
     39 H19         3.3710    5.5010   -2.2940 hn        1 MOL      0.342886
     40 H20         2.6740    6.6210   -1.3340 hn        1 MOL      0.342886
     41 N4         -3.3130    4.1890    0.3890 n         1 MOL     -0.164285
     42 C13        -4.1520    4.5710   -0.7790 c3        1 MOL      0.017540
     43 C14        -5.4360    3.7160   -0.9920 c         1 MOL      0.409731
     44 O6         -6.0960    3.8730   -2.0100 o         1 MOL     -0.522498
     45 C15        -3.2920    4.5890   -2.0440 c3        1 MOL     -0.088336
     46 C16        -2.5380    3.3170   -2.4160 c         1 MOL      0.774592
     47 O7         -1.7140    3.3400   -3.3560 o         1 MOL     -0.721537
     48 O8         -2.8570    2.2910   -1.7450 o         1 MOL     -0.721537
     49 H21        -2.7440    3.3690    0.2330 hn        1 MOL     -0.073920
     50 H22        -4.4920    5.6080   -0.7170 h1        1 MOL      0.086065
     51 H23        -2.5890    5.4120   -1.9940 hc        1 MOL      0.028251
     52 H24        -3.8690    4.9070   -2.9150 hc        1 MOL      0.028251
     53 N5         -5.8140    2.9560    0.0070 n         1 MOL     -0.248992
     54 C17        -7.2160    2.5200    0.0130 c3        1 MOL     -0.194747
     55 C18        -7.4920    1.3200   -0.9640 c         1 MOL      0.468077
     56 O9         -8.6580    1.0570   -1.2820 o         1 MOL     -0.551484
     57 H25        -5.2060    2.8660    0.8070 hn        1 MOL      0.255407
     58 H26        -7.9060    3.3420   -0.1580 h1        1 MOL      0.130191
     59 H27        -7.4290    2.2220    1.0350 h1        1 MOL      0.130191
     60 N6         -6.4950    0.5900   -1.5270 n         1 MOL     -0.166703
     61 C19        -6.8150   -0.4410   -2.5110 c3        1 MOL     -0.114612
     62 C20        -7.0050   -1.8140   -1.8450 c         1 MOL      0.437732
     63 O10        -7.3600   -2.7880   -2.4880 o         1 MOL     -0.544195
     64 C21        -5.7080   -0.5150   -3.5660 c3        1 MOL     -0.074551
     65 C22        -4.3110   -0.6890   -3.0870 c         1 MOL      0.639203
     66 O11        -3.3050   -0.2960   -3.7170 o         1 MOL     -0.673351
     67 O12        -4.0850   -1.3280   -1.9940 o         1 MOL     -0.673351
     68 H28        -5.5150    0.7890   -1.3870 hn        1 MOL      0.219751
     69 H29        -7.7600   -0.2860   -3.0320 h1        1 MOL      0.143910
     70 H30        -5.7200    0.3250   -4.2510 hc        1 MOL      0.048563
     71 H31        -5.9430   -1.3010   -4.2820 hc        1 MOL      0.048563
     72 N7         -6.7330   -1.9110   -0.5670 n         1 MOL     -0.187655
     73 C23        -6.7310   -3.1170    0.2720 c3        1 MOL     -0.107748
     74 C24        -5.5380   -4.0120    0.2440 c         1 MOL      0.549447
     75 O13        -5.6410   -5.1550    0.6120 o         1 MOL     -0.558072
     76 H32        -6.4830   -1.0130   -0.1710 hn        1 MOL      0.175684
     77 H33        -7.6320   -3.6930    0.0370 h1        1 MOL      0.088895
     78 H34        -6.8870   -2.9050    1.3250 h1        1 MOL      0.088895
     79 N8         -4.3660   -3.5250   -0.2740 n         1 MOL     -0.242740
     80 C25        -3.1230   -4.2090   -0.4110 c3        1 MOL     -0.122241
     81 C26        -1.8540   -3.3850    0.0330 c         1 MOL      0.720080
     82 O14        -1.8920   -2.2010    0.3730 o         1 MOL     -0.727968
     83 C27        -2.9660   -4.7460   -1.8310 c3        1 MOL      0.476864
     84 C28        -3.7800   -6.0210   -2.1640 c3        1 MOL     -0.463180
     85 O15        -3.1740   -3.8840   -2.8190 oh        1 MOL     -0.609199
     86 H35        -4.4030   -2.5620   -0.5640 hn        1 MOL      0.120134
     87 H36        -3.2370   -5.1100    0.1920 h1        1 MOL      0.063997
     88 H37        -1.9140   -5.0180   -1.9410 h1        1 MOL     -0.059849
     89 H38        -3.5080   -3.0940   -2.4030 ho        1 MOL      0.399779
     90 H39        -4.8100   -5.6930   -2.3300 hc        1 MOL      0.117282
     91 H40        -3.3520   -6.5240   -3.0260 hc        1 MOL      0.117282
     92 H41        -3.7360   -6.7560   -1.3670 hc        1 MOL      0.117282
     93 N9         -0.7800   -4.0750    0.1270 n         1 MOL     -0.482888
     94 C29         0.4360   -3.5700    0.7340 c3        1 MOL      0.358963
     95 C30         1.6520   -3.8030   -0.1600 c         1 MOL      0.315931
     96 O16         1.9690   -5.0010   -0.2900 o         1 MOL     -0.537669
     97 C31         0.6730   -4.2170    2.1050 c3        1 MOL      0.003910
     98 C32        -0.4260   -4.1150    3.0930 c3        1 MOL     -0.191687
     99 C33         2.0140   -3.7750    2.8110 c3        1 MOL     -0.133261
    100 C34        -0.6710   -2.7250    3.6920 c3        1 MOL      0.049412
    101 H42        -0.7830   -5.0560   -0.1160 hn        1 MOL      0.249380
    102 H43         0.4250   -2.4850    0.8410 h1        1 MOL      0.045740
    103 H44         0.7120   -5.2970    1.9650 hc        1 MOL      0.000530
    104 H45        -0.2800   -4.6970    4.0080 hc        1 MOL      0.048052
    105 H46        -1.3700   -4.3650    2.6040 hc        1 MOL      0.048052
    106 H47         1.8710   -2.7330    3.1200 hc        1 MOL      0.037127
    107 H48         2.2240   -4.3960    3.6720 hc        1 MOL      0.037127
    108 H49         2.8310   -3.8300    2.0900 hc        1 MOL      0.037127
    109 H50        -0.7110   -1.9670    2.9120 hc        1 MOL      0.008795
    110 H51        -1.5880   -2.7430    4.2960 hc        1 MOL      0.008795
    111 H52         0.1170   -2.5580    4.4260 hc        1 MOL      0.008795
    112 N10         2.2410   -2.8050   -0.7610 n         1 MOL     -0.061354
    113 C35         3.4690   -2.7450   -1.5450 c3        1 MOL     -0.025997
    114 C36         4.7450   -2.8680   -0.7220 c         1 MOL      0.377220
    115 O17         4.7040   -2.8280    0.4950 o         1 MOL     -0.289082
    116 C37         3.5800   -1.4080   -2.2840 c3        1 MOL      0.367794
    117 C38         2.7540   -1.4170   -3.5500 c3        1 MOL     -0.590581
    118 O18         3.1840   -0.3540   -1.4370 oh        1 MOL     -0.597964
    119 H53         1.8630   -1.8960   -0.5590 hn        1 MOL     -0.057316
    120 H54         3.5290   -3.5680   -2.2490 h1        1 MOL      0.072242
    121 H55         4.5840   -1.1710   -2.6670 h1        1 MOL      0.023995
    122 H56         2.2310   -0.4410   -1.2910 ho        1 MOL      0.359698
    123 H57         1.7020   -1.4840   -3.2640 hc        1 MOL      0.153142
    124 H58         2.9110   -0.4380   -4.0100 hc        1 MOL      0.153142
    125 H59         3.0100   -2.2130   -4.2470 hc        1 MOL      0.153142
    126 N11         5.9360   -2.7470   -1.3810 n         1 MOL     -0.411238
    127 C39         7.2630   -2.5460   -0.7950 c3        1 MOL      0.056642
    128 C40         7.2060   -1.3180    0.1350 c         1 MOL      0.321181
    129 O19         7.5180   -1.5030    1.2650 o         1 MOL     -0.446506
    130 C41         8.2700   -2.2160   -1.8630 c3        1 MOL      0.174440
    131 C42         8.6600   -3.4700   -2.7690 c3        1 MOL     -0.498446
    132 O20         7.8190   -1.3200   -2.8110 oh        1 MOL     -0.594023
    133 H60         5.8730   -2.7290   -2.3890 hn        1 MOL      0.251601
    134 H61         7.5930   -3.4240   -0.2380 h1        1 MOL      0.127786
    135 H62         9.1200   -1.7510   -1.3600 h1        1 MOL      0.049844
    136 H63         8.5620   -1.0500   -3.3620 ho        1 MOL      0.423515
    137 H64         7.8130   -3.8320   -3.3430 hc        1 MOL      0.149187
    138 H65         9.3780   -3.2110   -3.5500 hc        1 MOL      0.149187
    139 H66         9.1050   -4.2070   -2.1040 hc        1 MOL      0.149187
    140 N12         6.8050   -0.1270   -0.3390 n         1 MOL     -0.243419
    141 C43         6.8420    1.1980    0.3520 c3        1 MOL     -0.084010
    142 C44         5.7900    1.3570    1.4530 c         1 MOL      0.429906
    143 O21         6.0360    2.1560    2.3740 o         1 MOL     -0.534177
    144 C45         6.7100    2.3400   -0.6750 c3        1 MOL     -0.141341
    145 C46         7.9330    2.5260   -1.5890 c3        1 MOL      0.206631
    146 C47         7.8560    3.8540   -2.3720 c3        1 MOL     -0.176222
    147 C48         9.2390    3.9620   -3.0190 c3        1 MOL     -0.011480
    148 N13         9.1460    5.1550   -3.9380 n4        1 MOL     -0.094131
    149 H67         6.7680   -0.1830   -1.3410 hn        1 MOL      0.225483
    150 H68         7.8050    1.3770    0.8350 h1        1 MOL      0.145983
    151 H69         6.5730    3.3240   -0.2190 hc        1 MOL      0.033194
    152 H70         5.8800    2.1580   -1.3600 hc        1 MOL      0.033194
    153 H71         8.1450    1.7180   -2.2850 hc        1 MOL     -0.031059
    154 H72         8.7720    2.6020   -0.9010 hc        1 MOL     -0.031059
    155 H73         7.7220    4.6440   -1.6350 hc        1 MOL      0.068427
    156 H74         7.0040    3.7150   -3.0360 hc        1 MOL      0.068427
    157 H75         9.5440    3.1320   -3.6500 hx        1 MOL      0.104151
    158 H76         9.9270    4.0990   -2.1860 hx        1 MOL      0.104151
    159 H77         8.6020    5.9220   -3.5530 hn        1 MOL      0.207136
    160 H78        10.0660    5.5510   -4.0930 hn        1 MOL      0.207136
    161 H79         8.7150    4.9190   -4.8120 hn        1 MOL      0.207136
    162 N14         4.7930    0.4880    1.5030 n         1 MOL     -0.104757
    163 C49         3.7670    0.2980    2.5290 c3        1 MOL     -0.166427
    164 C50         4.2890   -0.7550    3.5860 c         1 MOL      0.587062
    165 O22         4.2830   -0.4360    4.8380 o         1 MOL     -0.546842
    166 C51         2.4110   -0.0750    1.9440 c3        1 MOL      0.138428
    167 C52         1.8030    1.0810    1.0810 c3        1 MOL     -0.189195
    168 C53         0.6490    0.5620    0.2980 c         1 MOL      0.625219
    169 O23        -0.4820    1.0150    0.5500 o         1 MOL     -0.498932
    170 O24         0.8530   -0.3890   -0.5140 o         1 MOL     -0.498932
    171 H80         4.7820   -0.1280    0.7060 hn        1 MOL      0.132831
    172 H81         3.5320    1.2060    3.0850 h1        1 MOL      0.095615
    173 H82         1.7230   -0.2240    2.7640 hc        1 MOL      0.009632
    174 H83         2.6400   -0.9560    1.3440 hc        1 MOL      0.009632
    175 H84         2.5070    1.3990    0.3090 hc        1 MOL      0.046326
    176 H85         1.4180    1.8180    1.7740 hc        1 MOL      0.046326
    177 N15         4.7210   -2.0110    3.1580 n         1 MOL     -0.268912
    178 C54         5.5400   -2.9960    3.9390 c3        1 MOL     -0.385200
    179 H86         6.5130   -3.1160    3.4640 h1        1 MOL      0.144057
    180 H87         5.6760   -2.6300    4.9570 h1        1 MOL      0.144057
    181 H88         5.0270   -3.9570    3.9630 h1        1 MOL      0.144057
    182 H89         4.7310   -2.2860    2.1870 hn        1 MOL      0.190807
    183 Ca1        -1.9460   -0.1090   -1.2210 Ca        1 MOL      1.713453
    184 O25        -0.3650    0.9790   -3.0330 oh        1 MOL     -0.965351
    185 H90        -0.2030    0.6450   -3.9150 ho        1 MOL      0.432593
    186 H91        -0.5920    1.9030   -3.1600 ho        1 MOL      0.432593
    187 O26        -1.0460   -2.1280   -2.8100 oh        1 MOL     -0.965351
    188 H92        -1.4980   -2.9430   -3.0330 ho        1 MOL      0.432593
    189 H93        -0.8280   -1.7380   -3.6540 ho        1 MOL      0.432593
@<TRIPOS>BOND
     1    1    2 1   
     2    1    4 1   
     3    1    5 1   
     4    1    6 1   
     5    2    3 2   
     6    2    7 1   
     7    7    8 1   
     8    7   15 1   
     9    8    9 1   
    10    8   11 1   
    11    8   16 1   
    12    9   10 2   
    13    9   19 1   
    14   11   12 1   
    15   11   17 1   
    16   11   18 1   
    17   12   13 1   
    18   12   14 1   
    19   19   20 1   
    20   19   28 1   
    21   20   21 1   
    22   20   23 1   
    23   20   29 1   
    24   21   22 2   
    25   21   41 1   
    26   23   24 1   
    27   23   30 1   
    28   23   31 1   
    29   24   25 1   
    30   24   32 1   
    31   24   33 1   
    32   25   26 1   
    33   25   34 1   
    34   25   35 1   
    35   26   27 1   
    36   26   36 1   
    37   26   37 1   
    38   27   38 1   
    39   27   39 1   
    40   27   40 1   
    41   41   42 1   
    42   41   49 1   
    43   42   43 1   
    44   42   45 1   
    45   42   50 1   
    46   43   44 2   
    47   43   53 1   
    48   45   46 1   
    49   45   51 1   
    50   45   52 1   
    51   46   47 1   
    52   46   48 1   
    53   53   54 1   
    54   53   57 1   
    55   54   55 1   
    56   54   58 1   
    57   54   59 1   
    58   55   56 2   
    59   55   60 1   
    60   60   61 1   
    61   60   68 1   
    62   61   62 1   
    63   61   64 1   
    64   61   69 1   
    65   62   63 2   
    66   62   72 1   
    67   64   65 1   
    68   64   70 1   
    69   64   71 1   
    70   65   66 1   
    71   65   67 1   
    72   72   73 1   
    73   72   76 1   
    74   73   74 1   
    75   73   77 1   
    76   73   78 1   
    77   74   75 2   
    78   74   79 1   
    79   79   80 1   
    80   79   86 1   
    81   80   81 1   
    82   80   83 1   
    83   80   87 1   
    84   81   82 2   
    85   81   93 1   
    86   83   84 1   
    87   83   85 1   
    88   83   88 1   
    89   84   90 1   
    90   84   91 1   
    91   84   92 1   
    92   85   89 1   
    93   93   94 1   
    94   93  101 1   
    95   94   95 1   
    96   94   97 1   
    97   94  102 1   
    98   95   96 2   
    99   95  112 1   
   100   97   98 1   
   101   97   99 1   
   102   97  103 1   
   103   98  100 1   
   104   98  104 1   
   105   98  105 1   
   106   99  106 1   
   107   99  107 1   
   108   99  108 1   
   109  100  109 1   
   110  100  110 1   
   111  100  111 1   
   112  112  113 1   
   113  112  119 1   
   114  113  114 1   
   115  113  116 1   
   116  113  120 1   
   117  114  115 2   
   118  114  126 1   
   119  116  117 1   
   120  116  118 1   
   121  116  121 1   
   122  117  123 1   
   123  117  124 1   
   124  117  125 1   
   125  118  122 1   
   126  126  127 1   
   127  126  133 1   
   128  127  128 1   
   129  127  130 1   
   130  127  134 1   
   131  128  129 2   
   132  128  140 1   
   133  130  131 1   
   134  130  132 1   
   135  130  135 1   
   136  131  137 1   
   137  131  138 1   
   138  131  139 1   
   139  132  136 1   
   140  140  141 1   
   141  140  149 1   
   142  141  142 1   
   143  141  144 1   
   144  141  150 1   
   145  142  143 2   
   146  142  162 1   
   147  144  145 1   
   148  144  151 1   
   149  144  152 1   
   150  145  146 1   
   151  145  153 1   
   152  145  154 1   
   153  146  147 1   
   154  146  155 1   
   155  146  156 1   
   156  147  148 1   
   157  147  157 1   
   158  147  158 1   
   159  148  159 1   
   160  148  160 1   
   161  148  161 1   
   162  162  163 1   
   163  162  171 1   
   164  163  164 1   
   165  163  166 1   
   166  163  172 1   
   167  164  165 2   
   168  164  177 1   
   169  166  167 1   
   170  166  173 1   
   171  166  174 1   
   172  167  168 1   
   173  167  175 1   
   174  167  176 1   
   175  168  169 1   
   176  168  170 1   
   177  177  178 1   
   178  177  182 1   
   179  178  179 1   
   180  178  180 1   
   181  178  181 1   
   182  184  185 1   
   183  184  186 1   
   184  187  188 1   
   185  187  189 1   
@<TRIPOS>SUBSTRUCTURE
     1 MOL         1 TEMP              0 ****  ****    0 ROOT
