@<TRIPOS>MOLECULE
MOL
  189   185     1     0     0
SMALL
resp


@<TRIPOS>ATOM
      1 C1          0.8220    4.7340   -4.5700 c3        1 MOL     -0.451638
      2 C2          0.8590    3.4530   -3.7160 c         1 MOL      0.776360
      3 O1         -0.1770    3.0700   -3.1640 o         1 MOL     -0.574922
      4 H1          0.9600    5.6030   -3.9260 hc        1 MOL      0.109577
      5 H2          1.6200    4.7000   -5.3100 hc        1 MOL      0.109577
      6 H3         -0.1420    4.8070   -5.0750 hc        1 MOL      0.109577
      7 N1          2.0690    2.8650   -3.5160 n         1 MOL     -0.635277
      8 C3          2.4150    2.1450   -2.2180 c3        1 MOL      0.133586
      9 C4          2.8720    3.1750   -1.2030 c         1 MOL      0.283722
     10 O2          3.9540    3.8400   -1.3650 o         1 MOL     -0.525182
     11 C5          3.5500    1.1170   -2.4280 c3        1 MOL     -0.162191
     12 C6          3.9700    0.3840   -1.1640 c         1 MOL      0.815926
     13 O3          4.9530   -0.4050   -1.3370 o         1 MOL     -0.700786
     14 O4          3.3090    0.5770   -0.1070 o         1 MOL     -0.700786
     15 H4          2.8520    3.2610   -4.0130 hn        1 MOL      0.340124
     16 H5          1.5540    1.6530   -1.7640 h1        1 MOL     -0.068045
     17 H6          4.3590    1.7240   -2.8410 hc        1 MOL      0.030775
     18 H7          3.2770    0.3070   -3.0940 hc        1 MOL      0.030775
     19 N2          2.0920    3.3960   -0.1220 n         1 MOL      0.057064
     20 C7          2.2470    4.4750    0.8200 c3        1 MOL     -0.095547
     21 C8          3.2730    4.3340    1.9190 c         1 MOL      0.578271
     22 O5          3.7140    5.3240    2.4980 o         1 MOL     -0.599835
     23 C9          0.8520    4.9470    1.3200 c3        1 MOL     -0.209879
     24 C10        -0.0210    5.7000    0.3590 c3        1 MOL      0.035855
     25 C11         0.7050    7.0110   -0.1380 c3        1 MOL     -0.193386
     26 C12         0.0680    7.7840   -1.2780 c3        1 MOL      0.122962
     27 N3          0.8960    8.9690   -1.6440 n4        1 MOL     -0.360769
     28 H8          1.2500    2.8410   -0.1830 hn        1 MOL      0.230978
     29 H9          2.7570    5.2180    0.2110 h1        1 MOL      0.012648
     30 H10         1.0650    5.5830    2.1850 hc        1 MOL      0.089978
     31 H11         0.3100    4.1210    1.7820 hc        1 MOL      0.089978
     32 H12        -0.9410    5.9520    0.8740 hc        1 MOL      0.035714
     33 H13        -0.1600    5.0340   -0.4910 hc        1 MOL      0.035714
     34 H14         1.6320    6.5980   -0.5340 hc        1 MOL      0.086913
     35 H15         0.7770    7.6390    0.7470 hc        1 MOL      0.086913
     36 H16        -0.9600    8.0400   -1.0350 hx        1 MOL      0.065937
     37 H17         0.0160    7.1050   -2.1300 hx        1 MOL      0.065937
     38 H18         0.9880    9.6630   -0.9190 hn        1 MOL      0.320350
     39 H19         1.8800    8.7790   -1.7330 hn        1 MOL      0.320350
     40 H20         0.5610    9.4680   -2.4600 hn        1 MOL      0.320350
     41 N4          3.6960    3.1080    2.1710 n         1 MOL     -0.353261
     42 C13         4.5890    2.8080    3.3160 c3        1 MOL     -0.006755
     43 C14         5.8490    1.9890    2.9610 c         1 MOL      0.383137
     44 O6          6.5740    1.4930    3.8190 o         1 MOL     -0.494275
     45 C15         3.7300    2.2880    4.3900 c3        1 MOL     -0.015345
     46 C16         2.7410    1.2630    4.0120 c         1 MOL      0.728860
     47 O7          1.9590    0.8700    4.9320 o         1 MOL     -0.694977
     48 O8          2.6950    0.6980    2.8920 o         1 MOL     -0.694977
     49 H21         3.1050    2.3820    1.8000 hn        1 MOL      0.126784
     50 H22         4.9600    3.7460    3.7270 h1        1 MOL      0.114834
     51 H23         3.1710    3.0890    4.8800 hc        1 MOL      0.020712
     52 H24         4.3460    2.0270    5.2590 hc        1 MOL      0.020712
     53 N5          6.1590    1.8620    1.6430 n         1 MOL     -0.235294
     54 C17         7.4200    1.2980    1.0650 c3        1 MOL     -0.195512
     55 C18         7.6040   -0.2760    1.2730 c         1 MOL      0.454012
     56 O9          8.7890   -0.7260    1.3520 o         1 MOL     -0.567555
     57 H25         5.5510    2.4030    1.0430 hn        1 MOL      0.227452
     58 H26         8.2790    1.7840    1.5220 h1        1 MOL      0.116444
     59 H27         7.3880    1.5810    0.0100 h1        1 MOL      0.116444
     60 N6          6.5440   -1.0500    1.5460 n         1 MOL     -0.082956
     61 C19         6.7220   -2.5520    1.6860 c3        1 MOL     -0.184200
     62 C20         6.7920   -3.3930    0.3670 c         1 MOL      0.511377
     63 O10         7.1360   -4.5320    0.4280 o         1 MOL     -0.524219
     64 C21         5.6020   -3.1360    2.5560 c3        1 MOL     -0.173508
     65 C22         4.1370   -2.7610    2.1110 c         1 MOL      0.686243
     66 O11         3.9490   -2.4330    0.9230 o         1 MOL     -0.648685
     67 O12         3.1750   -2.6800    2.8930 o         1 MOL     -0.648685
     68 H28         5.6660   -0.5860    1.4080 hn        1 MOL      0.146519
     69 H29         7.6610   -2.7410    2.2180 h1        1 MOL      0.160079
     70 H30         5.8300   -2.7800    3.5580 hc        1 MOL      0.063285
     71 H31         5.6760   -4.2260    2.6290 hc        1 MOL      0.063285
     72 N7          6.5660   -2.7110   -0.7960 n         1 MOL     -0.326854
     73 C23         6.3870   -3.3780   -2.1480 c3        1 MOL     -0.247099
     74 C24         5.0210   -3.9680   -2.4680 c         1 MOL      0.577401
     75 O13         5.0000   -4.7300   -3.4560 o         1 MOL     -0.598079
     76 H32         6.2640   -1.7600   -0.6730 hn        1 MOL      0.256597
     77 H33         7.1380   -4.1590   -2.2550 h1        1 MOL      0.131632
     78 H34         6.5150   -2.5250   -2.8130 h1        1 MOL      0.131632
     79 N8          3.9920   -3.7000   -1.6770 n         1 MOL     -0.180863
     80 C25         2.6140   -4.1470   -2.1040 c3        1 MOL     -0.105885
     81 C26         1.6840   -2.9320   -1.9070 c         1 MOL      0.591562
     82 O14         1.9130   -1.9500   -1.2180 o         1 MOL     -0.524860
     83 C27         2.1530   -5.4020   -1.3630 c3        1 MOL      0.247432
     84 C28         2.9920   -6.6900   -1.6870 c3        1 MOL     -0.369611
     85 O15         2.1550   -5.2800    0.0290 oh        1 MOL     -0.544877
     86 H35         4.0160   -3.0490   -0.9000 hn        1 MOL      0.177380
     87 H36         2.6540   -4.4590   -3.1560 h1        1 MOL      0.084910
     88 H37         1.1030   -5.5990   -1.5570 h1        1 MOL      0.038431
     89 H38         2.9000   -5.7890    0.3630 ho        1 MOL      0.390388
     90 H39         2.6410   -7.5830   -1.1710 hc        1 MOL      0.109113
     91 H40         2.8860   -6.9720   -2.7320 hc        1 MOL      0.109113
     92 H41         4.0500   -6.5130   -1.4630 hc        1 MOL      0.109113
     93 N9          0.5340   -2.9760   -2.6290 n         1 MOL     -0.565855
     94 C29        -0.5820   -2.0420   -2.5810 c3        1 MOL     -0.014001
     95 C30        -1.8380   -2.7870   -2.1560 c         1 MOL      0.621390
     96 O16        -2.1440   -3.8820   -2.6150 o         1 MOL     -0.567504
     97 C31        -0.6950   -1.2800   -3.9240 c3        1 MOL      0.035179
     98 C32         0.5710   -0.3680   -4.1030 c3        1 MOL      0.122832
     99 C33        -2.0250   -0.4670   -4.0130 c3        1 MOL     -0.304022
    100 C34         0.7480    0.2690   -5.4990 c3        1 MOL     -0.445620
    101 H42         0.4760   -3.7530   -3.2640 hn        1 MOL      0.293082
    102 H43        -0.3240   -1.3380   -1.7850 h1        1 MOL      0.075010
    103 H44        -0.5930   -2.0190   -4.7210 hc        1 MOL      0.035472
    104 H45         1.4510   -0.9210   -3.7870 hc        1 MOL      0.071772
    105 H46         0.4310    0.4080   -3.3430 hc        1 MOL      0.071772
    106 H47        -2.1320    0.1550   -3.1190 hc        1 MOL      0.080512
    107 H48        -1.9680    0.2240   -4.8550 hc        1 MOL      0.080512
    108 H49        -2.8530   -1.1490   -4.1740 hc        1 MOL      0.080512
    109 H50         1.7180    0.7520   -5.4110 hc        1 MOL      0.106015
    110 H51         0.8530   -0.5090   -6.2540 hc        1 MOL      0.106015
    111 H52         0.0000    1.0340   -5.6990 hc        1 MOL      0.106015
    112 N10        -2.6950   -2.2100   -1.2850 n         1 MOL     -0.219533
    113 C35        -3.8920   -2.8090   -0.6930 c3        1 MOL     -0.132487
    114 C36        -5.1270   -2.0390   -1.0060 c         1 MOL      0.589385
    115 O17        -5.0550   -1.0150   -1.6780 o         1 MOL     -0.454123
    116 C37        -3.8460   -2.8210    0.8580 c3        1 MOL      0.161280
    117 C38        -2.6440   -3.6130    1.3090 c3        1 MOL     -0.354661
    118 O18        -3.7880   -1.4680    1.3460 oh        1 MOL     -0.474404
    119 H53        -2.3800   -1.3430   -0.8790 hn        1 MOL      0.122577
    120 H54        -4.0550   -3.8010   -1.1120 h1        1 MOL      0.100208
    121 H55        -4.7530   -3.2710    1.2640 h1        1 MOL      0.075776
    122 H56        -2.8770   -1.2230    1.5050 ho        1 MOL      0.351777
    123 H57        -3.0500   -4.2370    2.1140 hc        1 MOL      0.116231
    124 H58        -2.1360   -4.2680    0.6030 hc        1 MOL      0.116231
    125 H59        -1.9320   -2.9190    1.7680 hc        1 MOL      0.116231
    126 N11        -6.3370   -2.4500   -0.6090 n         1 MOL     -0.456153
    127 C39        -7.4550   -1.5400   -0.8900 c3        1 MOL     -0.065569
    128 C40        -7.3310   -0.1760   -0.1680 c         1 MOL      0.283523
    129 O19        -7.8240    0.8450   -0.6660 o         1 MOL     -0.506281
    130 C41        -8.8190   -2.1230   -0.4220 c3        1 MOL      0.273996
    131 C42        -9.0400   -3.5430   -1.0590 c3        1 MOL     -0.619271
    132 O20        -8.7770   -2.2750    0.9650 oh        1 MOL     -0.581227
    133 H60        -6.4010   -3.3060   -0.0720 hn        1 MOL      0.293204
    134 H61        -7.5360   -1.3740   -1.9640 h1        1 MOL      0.145962
    135 H62        -9.6350   -1.4660   -0.6980 h1        1 MOL      0.068040
    136 H63        -9.4900   -1.8150    1.4020 ho        1 MOL      0.363611
    137 H64       -10.1010   -3.7430   -0.9040 hc        1 MOL      0.178611
    138 H65        -9.0490   -3.4920   -2.1500 hc        1 MOL      0.178611
    139 H66        -8.3460   -4.2950   -0.6740 hc        1 MOL      0.178611
    140 N12        -6.6100   -0.1610    0.9270 n         1 MOL      0.136027
    141 C43        -6.3960    1.0660    1.7530 c3        1 MOL     -0.163678
    142 C44        -5.5840    2.1660    1.0700 c         1 MOL      0.526225
    143 O21        -5.4490    3.2780    1.4780 o         1 MOL     -0.559593
    144 C45        -5.9050    0.7870    3.1830 c3        1 MOL     -0.504152
    145 C46        -6.5160   -0.4360    3.8780 c3        1 MOL      0.069219
    146 C47        -8.0330   -0.4230    4.2160 c3        1 MOL      0.013736
    147 C48        -8.5370   -1.6740    4.9820 c3        1 MOL     -0.217087
    148 N13        -9.9750   -1.8290    5.0080 n4        1 MOL     -0.059663
    149 H67        -6.1130   -0.9710    1.2620 hn        1 MOL      0.141862
    150 H68        -7.3630    1.5550    1.9120 h1        1 MOL      0.100866
    151 H69        -6.1660    1.5750    3.8910 hc        1 MOL      0.219981
    152 H70        -4.8140    0.7180    3.0720 hc        1 MOL      0.219981
    153 H71        -5.9240   -0.5700    4.7870 hc        1 MOL      0.018311
    154 H72        -6.2290   -1.3110    3.2830 hc        1 MOL      0.018311
    155 H73        -8.6360   -0.4280    3.3060 hc        1 MOL      0.032815
    156 H74        -8.1600    0.4890    4.8060 hc        1 MOL      0.032815
    157 H75        -8.1790   -1.5140    5.9910 hx        1 MOL      0.141010
    158 H76        -8.0780   -2.5520    4.5150 hx        1 MOL      0.141010
    159 H77       -10.5500   -1.3050    5.6600 hn        1 MOL      0.229270
    160 H78       -10.3580   -1.7000    4.0820 hn        1 MOL      0.229270
    161 H79       -10.2770   -2.7770    5.1210 hn        1 MOL      0.229270
    162 N14        -5.0510    1.8270   -0.0630 n         1 MOL      0.088821
    163 C49        -4.0400    2.5660   -0.8430 c3        1 MOL     -0.219533
    164 C50        -4.4810    2.7560   -2.3370 c         1 MOL      0.514523
    165 O22        -4.1460    3.7180   -2.9960 o         1 MOL     -0.536001
    166 C51        -2.6770    1.8680   -0.7060 c3        1 MOL      0.225581
    167 C52        -2.0480    1.6940    0.7100 c3        1 MOL      0.060123
    168 C53        -0.8920    0.7100    0.6900 c         1 MOL      0.712658
    169 O23        -0.9960   -0.4080    1.2480 o         1 MOL     -0.772131
    170 O24         0.2310    1.0050    0.1960 o         1 MOL     -0.772131
    171 H80        -5.2400    0.9170   -0.4510 hn        1 MOL     -0.400702
    172 H81        -3.9490    3.6040   -0.5200 h1        1 MOL      0.099859
    173 H82        -2.0230    2.3040   -1.4580 hc        1 MOL     -0.000811
    174 H83        -2.9810    0.8730   -1.0250 hc        1 MOL     -0.000811
    175 H84        -2.7810    1.2810    1.3960 hc        1 MOL     -0.042279
    176 H85        -1.7000    2.6910    0.9880 hc        1 MOL     -0.042279
    177 N15        -5.3350    1.7920   -2.8640 n         1 MOL     -0.218074
    178 C54        -5.8960    1.8550   -4.2240 c3        1 MOL     -0.091317
    179 H86        -5.6350    2.8110   -4.6800 h1        1 MOL      0.061747
    180 H87        -5.4850    1.0430   -4.8250 h1        1 MOL      0.061747
    181 H88        -6.9800    1.7590   -4.1750 h1        1 MOL      0.061747
    182 H89        -5.4070    0.9370   -2.3210 hn        1 MOL      0.293582
    183 Ca1         1.7810   -0.9470    1.2510 Ca        1 MOL      1.742903
    184 O25         0.8490   -1.2140    4.0110 oh        1 MOL     -0.798391
    185 H90         1.2630   -0.4300    4.3630 ho        1 MOL      0.360073
    186 H91        -0.0780   -1.1330    4.2380 ho        1 MOL      0.360073
    187 O26         0.5730   -3.4560    1.3520 oh        1 MOL     -0.798391
    188 H92        -0.1500   -4.0450    1.5660 ho        1 MOL      0.360073
    189 H93         1.2320   -4.0210    0.9660 ho        1 MOL      0.360073
@<TRIPOS>BOND
     1    1    2 1   
     2    1    4 1   
     3    1    5 1   
     4    1    6 1   
     5    2    3 2   
     6    2    7 1   
     7    7    8 1   
     8    7   15 1   
     9    8    9 1   
    10    8   11 1   
    11    8   16 1   
    12    9   10 2   
    13    9   19 1   
    14   11   12 1   
    15   11   17 1   
    16   11   18 1   
    17   12   13 1   
    18   12   14 1   
    19   19   20 1   
    20   19   28 1   
    21   20   21 1   
    22   20   23 1   
    23   20   29 1   
    24   21   22 2   
    25   21   41 1   
    26   23   24 1   
    27   23   30 1   
    28   23   31 1   
    29   24   25 1   
    30   24   32 1   
    31   24   33 1   
    32   25   26 1   
    33   25   34 1   
    34   25   35 1   
    35   26   27 1   
    36   26   36 1   
    37   26   37 1   
    38   27   38 1   
    39   27   39 1   
    40   27   40 1   
    41   41   42 1   
    42   41   49 1   
    43   42   43 1   
    44   42   45 1   
    45   42   50 1   
    46   43   44 2   
    47   43   53 1   
    48   45   46 1   
    49   45   51 1   
    50   45   52 1   
    51   46   47 1   
    52   46   48 1   
    53   53   54 1   
    54   53   57 1   
    55   54   55 1   
    56   54   58 1   
    57   54   59 1   
    58   55   56 2   
    59   55   60 1   
    60   60   61 1   
    61   60   68 1   
    62   61   62 1   
    63   61   64 1   
    64   61   69 1   
    65   62   63 2   
    66   62   72 1   
    67   64   65 1   
    68   64   70 1   
    69   64   71 1   
    70   65   66 1   
    71   65   67 1   
    72   72   73 1   
    73   72   76 1   
    74   73   74 1   
    75   73   77 1   
    76   73   78 1   
    77   74   75 2   
    78   74   79 1   
    79   79   80 1   
    80   79   86 1   
    81   80   81 1   
    82   80   83 1   
    83   80   87 1   
    84   81   82 2   
    85   81   93 1   
    86   83   84 1   
    87   83   85 1   
    88   83   88 1   
    89   84   90 1   
    90   84   91 1   
    91   84   92 1   
    92   85   89 1   
    93   93   94 1   
    94   93  101 1   
    95   94   95 1   
    96   94   97 1   
    97   94  102 1   
    98   95   96 2   
    99   95  112 1   
   100   97   98 1   
   101   97   99 1   
   102   97  103 1   
   103   98  100 1   
   104   98  104 1   
   105   98  105 1   
   106   99  106 1   
   107   99  107 1   
   108   99  108 1   
   109  100  109 1   
   110  100  110 1   
   111  100  111 1   
   112  112  113 1   
   113  112  119 1   
   114  113  114 1   
   115  113  116 1   
   116  113  120 1   
   117  114  115 2   
   118  114  126 1   
   119  116  117 1   
   120  116  118 1   
   121  116  121 1   
   122  117  123 1   
   123  117  124 1   
   124  117  125 1   
   125  118  122 1   
   126  126  127 1   
   127  126  133 1   
   128  127  128 1   
   129  127  130 1   
   130  127  134 1   
   131  128  129 2   
   132  128  140 1   
   133  130  131 1   
   134  130  132 1   
   135  130  135 1   
   136  131  137 1   
   137  131  138 1   
   138  131  139 1   
   139  132  136 1   
   140  140  141 1   
   141  140  149 1   
   142  141  142 1   
   143  141  144 1   
   144  141  150 1   
   145  142  143 2   
   146  142  162 1   
   147  144  145 1   
   148  144  151 1   
   149  144  152 1   
   150  145  146 1   
   151  145  153 1   
   152  145  154 1   
   153  146  147 1   
   154  146  155 1   
   155  146  156 1   
   156  147  148 1   
   157  147  157 1   
   158  147  158 1   
   159  148  159 1   
   160  148  160 1   
   161  148  161 1   
   162  162  163 1   
   163  162  171 1   
   164  163  164 1   
   165  163  166 1   
   166  163  172 1   
   167  164  165 2   
   168  164  177 1   
   169  166  167 1   
   170  166  173 1   
   171  166  174 1   
   172  167  168 1   
   173  167  175 1   
   174  167  176 1   
   175  168  169 1   
   176  168  170 1   
   177  177  178 1   
   178  177  182 1   
   179  178  179 1   
   180  178  180 1   
   181  178  181 1   
   182  184  185 1   
   183  184  186 1   
   184  187  188 1   
   185  187  189 1   
@<TRIPOS>SUBSTRUCTURE
     1 MOL         1 TEMP              0 ****  ****    0 ROOT
