@<TRIPOS>MOLECULE
MOL
  189   185     1     0     0
SMALL
resp


@<TRIPOS>ATOM
      1 C1         -0.2000    3.7270    4.6240 c3        1 MOL     -0.395288
      2 C2         -0.7950    3.3230    3.2940 c         1 MOL      0.511411
      3 O1         -0.1980    3.7090    2.2310 o         1 MOL     -0.572063
      4 H1          0.6440    4.3970    4.4540 hc        1 MOL      0.108642
      5 H2         -0.9550    4.2380    5.2210 hc        1 MOL      0.108642
      6 H3          0.1430    2.8390    5.1540 hc        1 MOL      0.108642
      7 N1         -1.7950    2.4690    3.2890 n         1 MOL     -0.395814
      8 C3         -2.5540    2.0230    2.1290 c3        1 MOL      0.227410
      9 C4         -3.4720    3.0750    1.5300 c         1 MOL      0.307753
     10 O2         -4.6560    3.0820    1.7260 o         1 MOL     -0.475085
     11 C5         -3.2890    0.7070    2.4580 c3        1 MOL     -0.258368
     12 C6         -4.0060   -0.0020    1.3310 c         1 MOL      0.735344
     13 O3         -3.7770    0.3360    0.1400 o         1 MOL     -0.669721
     14 O4         -4.8300   -0.8580    1.7230 o         1 MOL     -0.669721
     15 H4         -2.0940    2.2620    4.2310 hn        1 MOL      0.284600
     16 H5         -1.8730    1.7770    1.3240 h1        1 MOL      0.004321
     17 H6         -3.9700    0.9400    3.2700 hc        1 MOL      0.051830
     18 H7         -2.6050   -0.0670    2.8110 hc        1 MOL      0.051830
     19 N2         -2.8060    3.8560    0.7220 n         1 MOL     -0.281963
     20 C7         -3.3440    5.0360    0.0510 c3        1 MOL     -0.001338
     21 C8         -4.2270    4.6900   -1.1160 c         1 MOL      0.377793
     22 O5         -5.0240    5.5290   -1.5310 o         1 MOL     -0.547128
     23 C9         -2.1850    6.0420   -0.4290 c3        1 MOL     -0.108073
     24 C10        -1.5130    6.8070    0.6400 c3        1 MOL      0.251748
     25 C11        -0.3140    7.6620    0.0820 c3        1 MOL     -0.099946
     26 C12         0.3750    8.4520    1.2020 c3        1 MOL     -0.076475
     27 N3          0.9050    7.6770    2.3490 n4        1 MOL     -0.157550
     28 H8         -1.8120    3.7390    0.6680 hn        1 MOL      0.316931
     29 H9         -3.8850    5.6150    0.7990 h1        1 MOL      0.089935
     30 H10        -2.6640    6.7770   -1.0750 hc        1 MOL      0.033694
     31 H11        -1.4210    5.4750   -0.9750 hc        1 MOL      0.033694
     32 H12        -1.0730    6.0220    1.2520 hc        1 MOL     -0.061070
     33 H13        -2.2400    7.4250    1.1750 hc        1 MOL     -0.061070
     34 H14        -0.6350    8.4670   -0.5850 hc        1 MOL      0.071877
     35 H15         0.4860    7.0860   -0.3880 hc        1 MOL      0.071877
     36 H16        -0.2830    9.2360    1.5820 hx        1 MOL      0.097879
     37 H17         1.2720    8.9280    0.7890 hx        1 MOL      0.097879
     38 H18         1.5050    6.8880    2.1540 hn        1 MOL      0.271177
     39 H19         1.4160    8.2450    3.0280 hn        1 MOL      0.271177
     40 H20         0.1460    7.2530    2.8750 hn        1 MOL      0.271177
     41 N4         -4.1380    3.4980   -1.7000 n         1 MOL     -0.117242
     42 C13        -4.8950    3.1710   -2.9090 c3        1 MOL      0.050743
     43 C14        -5.9890    2.0620   -2.7270 c         1 MOL      0.533490
     44 O6         -6.7210    1.7660   -3.6520 o         1 MOL     -0.538760
     45 C15        -3.9490    2.8390   -4.0670 c3        1 MOL     -0.299298
     46 C16        -2.9520    1.7070   -3.8890 c         1 MOL      0.827989
     47 O7         -3.0310    0.9760   -2.8610 o         1 MOL     -0.713819
     48 O8         -2.0890    1.4670   -4.8050 o         1 MOL     -0.713819
     49 H21        -3.5700    2.7510   -1.3270 hn        1 MOL      0.113411
     50 H22        -5.5600    4.0220   -3.0950 h1        1 MOL      0.081171
     51 H23        -3.3530    3.7300   -4.2890 hc        1 MOL      0.067780
     52 H24        -4.5040    2.5190   -4.9460 hc        1 MOL      0.067780
     53 N5         -6.1510    1.5100   -1.4850 n         1 MOL     -0.406998
     54 C17        -7.4570    0.9430   -1.0830 c3        1 MOL     -0.230163
     55 C18        -7.5310   -0.6230   -1.2250 c         1 MOL      0.673302
     56 O9         -8.5390   -1.1090   -0.8850 o         1 MOL     -0.632152
     57 H25        -5.4440    1.6520   -0.7740 hn        1 MOL      0.313046
     58 H26        -8.3010    1.3380   -1.6440 h1        1 MOL      0.126227
     59 H27        -7.6030    1.1770   -0.0330 h1        1 MOL      0.126227
     60 N6         -6.5180   -1.3250   -1.6710 n         1 MOL     -0.355173
     61 C19        -6.4800   -2.7950   -1.9740 c3        1 MOL     -0.010381
     62 C20        -6.4590   -3.5880   -0.7010 c         1 MOL      0.452814
     63 O10        -6.3510   -4.7940   -0.8290 o         1 MOL     -0.561972
     64 C21        -5.3800   -3.1710   -2.9430 c3        1 MOL     -0.155224
     65 C22        -3.9350   -2.6620   -2.5730 c         1 MOL      0.676363
     66 O11        -3.6570   -2.5610   -1.3900 o         1 MOL     -0.657399
     67 O12        -3.0200   -2.5070   -3.4320 o         1 MOL     -0.657399
     68 H28        -5.6330   -0.8490   -1.7470 hn        1 MOL      0.182141
     69 H29        -7.4100   -3.0540   -2.4890 h1        1 MOL      0.115284
     70 H30        -5.6860   -2.7790   -3.9150 hc        1 MOL      0.056479
     71 H31        -5.4460   -4.2340   -3.1420 hc        1 MOL      0.056479
     72 N7         -6.6130   -3.0020    0.4690 n         1 MOL     -0.246769
     73 C23        -6.5030   -3.5630    1.8630 c3        1 MOL     -0.206060
     74 C24        -5.1140   -3.9840    2.2670 c         1 MOL      0.557324
     75 O13        -5.0640   -4.8130    3.2350 o         1 MOL     -0.601624
     76 H32        -6.6440   -1.9960    0.4080 hn        1 MOL      0.273334
     77 H33        -7.2460   -4.3610    1.9310 h1        1 MOL      0.124711
     78 H34        -6.7860   -2.7910    2.5740 h1        1 MOL      0.124711
     79 N8         -4.0630   -3.5580    1.6060 n         1 MOL     -0.176535
     80 C25        -2.6590   -4.0470    1.9620 c3        1 MOL     -0.239027
     81 C26        -1.5180   -3.1300    1.6290 c         1 MOL      0.928197
     82 O14        -1.5880   -2.2660    0.7380 o         1 MOL     -0.665531
     83 C27        -2.2850   -5.3430    1.2500 c3        1 MOL      0.258209
     84 C28        -3.2800   -6.4900    1.2530 c3        1 MOL     -0.295170
     85 O15        -2.1850   -4.9840   -0.0970 oh        1 MOL     -0.577049
     86 H35        -4.1820   -2.8490    0.8920 hn        1 MOL      0.152385
     87 H36        -2.6120   -4.1850    3.0450 h1        1 MOL      0.076359
     88 H37        -1.3300   -5.6390    1.6740 h1        1 MOL      0.033955
     89 H38        -3.0740   -5.1660   -0.4170 ho        1 MOL      0.419011
     90 H39        -4.1310   -6.2410    0.6140 hc        1 MOL      0.088070
     91 H40        -2.8430   -7.3710    0.7940 hc        1 MOL      0.088070
     92 H41        -3.5980   -6.7990    2.2460 hc        1 MOL      0.088070
     93 N9         -0.4640   -3.2910    2.4190 n         1 MOL     -0.712407
     94 C29         0.6740   -2.3720    2.4280 c3        1 MOL      0.013847
     95 C30         1.8340   -3.0770    1.7190 c         1 MOL      0.727445
     96 O16         2.2480   -4.1280    2.1120 o         1 MOL     -0.599725
     97 C31         0.9950   -1.8670    3.8400 c3        1 MOL      0.228298
     98 C32        -0.2170   -1.4340    4.7760 c3        1 MOL      0.228663
     99 C33         2.1420   -0.7990    3.8170 c3        1 MOL     -0.489736
    100 C34         0.3030   -1.4030    6.2680 c3        1 MOL     -0.104645
    101 H42        -0.5620   -3.8450    3.2570 hn        1 MOL      0.339079
    102 H43         0.3480   -1.4790    1.9020 h1        1 MOL      0.094092
    103 H44         1.4030   -2.7720    4.2620 hc        1 MOL     -0.020355
    104 H45        -0.8770   -2.3070    4.7230 hc        1 MOL     -0.076693
    105 H46        -0.7340   -0.5240    4.4470 hc        1 MOL     -0.076693
    106 H47         2.9840   -1.1630    3.2270 hc        1 MOL      0.096208
    107 H48         1.8230    0.1980    3.4980 hc        1 MOL      0.096208
    108 H49         2.6040   -0.5970    4.7730 hc        1 MOL      0.096208
    109 H50         0.9770   -0.5560    6.3830 hc        1 MOL      0.017183
    110 H51        -0.5070   -1.2750    7.0020 hc        1 MOL      0.017183
    111 H52         0.8710   -2.2990    6.4710 hc        1 MOL      0.017183
    112 N10         2.4110   -2.3260    0.8240 n         1 MOL     -0.350369
    113 C35         3.6920   -2.5920    0.2250 c3        1 MOL     -0.034281
    114 C36         4.9390   -1.9110    0.9730 c         1 MOL      0.391109
    115 O17         4.8190   -0.8680    1.5600 o         1 MOL     -0.275814
    116 C37         3.7610   -2.1500   -1.2790 c3        1 MOL      0.164786
    117 C38         2.8010   -2.8570   -2.1860 c3        1 MOL     -0.593897
    118 O18         3.4780   -0.7450   -1.3570 oh        1 MOL     -0.407777
    119 H53         1.8780   -1.5100    0.5620 hn        1 MOL      0.203075
    120 H54         3.8640   -3.6600    0.3040 h1        1 MOL      0.091493
    121 H55         4.7900   -2.2010   -1.6340 h1        1 MOL      0.051319
    122 H56         2.5360   -0.6370   -1.2110 ho        1 MOL      0.303534
    123 H57         2.6920   -3.9140   -1.9290 hc        1 MOL      0.183267
    124 H58         1.7880   -2.4580   -2.1260 hc        1 MOL      0.183267
    125 H59         3.1080   -2.6650   -3.2120 hc        1 MOL      0.183267
    126 N11         6.1430   -2.4810    0.8060 n         1 MOL     -0.420868
    127 C39         7.4890   -1.8770    0.9350 c3        1 MOL      0.097324
    128 C40         7.5840   -0.4150    0.3410 c         1 MOL     -0.034710
    129 O19         8.1330    0.5050    0.9850 o         1 MOL     -0.451323
    130 C41         8.4030   -2.6490    0.0610 c3        1 MOL      0.301224
    131 C42         8.8580   -3.9650    0.6680 c3        1 MOL     -0.721751
    132 O20         7.8270   -2.9150   -1.1890 oh        1 MOL     -0.679202
    133 H60         6.1370   -3.3210    0.2350 hn        1 MOL      0.254276
    134 H61         7.8580   -1.9920    1.9600 h1        1 MOL      0.114076
    135 H62         9.3580   -2.1360   -0.0440 h1        1 MOL      0.052855
    136 H63         8.3720   -3.5850   -1.6110 ho        1 MOL      0.434678
    137 H64         9.8490   -4.1820    0.2940 hc        1 MOL      0.201730
    138 H65         8.8360   -3.8400    1.7550 hc        1 MOL      0.201730
    139 H66         8.1630   -4.7920    0.4640 hc        1 MOL      0.201730
    140 N12         6.9990   -0.2120   -0.8050 n         1 MOL      0.406086
    141 C43         6.8700    1.0500   -1.4340 c3        1 MOL     -0.065148
    142 C44         5.8860    2.0440   -0.8140 c         1 MOL      0.397793
    143 O21         6.3180    3.2020   -0.6370 o         1 MOL     -0.520224
    144 C45         6.5590    0.8370   -2.9410 c3        1 MOL     -0.281621
    145 C46         7.3360   -0.2340   -3.7870 c3        1 MOL      0.093356
    146 C47         8.8230   -0.0940   -3.6830 c3        1 MOL      0.506834
    147 C48         9.5050   -1.2440   -4.4700 c3        1 MOL     -0.041529
    148 N13        10.9090   -1.0840   -4.6000 n4        1 MOL     -0.332290
    149 H67         6.5230   -1.0270   -1.1610 hn        1 MOL      0.197299
    150 H68         7.8350    1.5530   -1.3230 h1        1 MOL      0.031967
    151 H69         6.6400    1.7640   -3.4930 hc        1 MOL      0.109543
    152 H70         5.5010    0.6450   -3.1250 hc        1 MOL      0.109543
    153 H71         7.1360   -0.2170   -4.8590 hc        1 MOL     -0.050106
    154 H72         6.9710   -1.1990   -3.4330 hc        1 MOL     -0.050106
    155 H73         9.1270   -0.3330   -2.6660 hc        1 MOL     -0.140793
    156 H74         9.0890    0.9150   -4.0150 hc        1 MOL     -0.140793
    157 H75         9.0730   -1.2290   -5.4690 hx        1 MOL      0.046345
    158 H76         9.2650   -2.1160   -3.8640 hx        1 MOL      0.046345
    159 H77        11.2820   -0.8460   -3.6900 hn        1 MOL      0.292313
    160 H78        11.3200   -1.9890   -4.8050 hn        1 MOL      0.292313
    161 H79        11.1300   -0.4520   -5.3540 hn        1 MOL      0.292313
    162 N14         4.6960    1.6730   -0.3560 n         1 MOL     -0.027836
    163 C49         3.8400    2.4820    0.5430 c3        1 MOL     -0.213226
    164 C50         4.5170    2.7910    1.9240 c         1 MOL      0.481306
    165 O22         4.3880    3.8900    2.3960 o         1 MOL     -0.545292
    166 C51         2.4790    1.8960    0.7250 c3        1 MOL     -0.023379
    167 C52         1.6660    1.9090   -0.6360 c3        1 MOL     -0.100559
    168 C53         0.4330    1.0740   -0.6040 c         1 MOL      0.789022
    169 O23        -0.7230    1.5360   -0.8470 o         1 MOL     -0.775936
    170 O24         0.5700   -0.1670   -0.6240 o         1 MOL     -0.775936
    171 H80         4.4930    0.6840   -0.4630 hn        1 MOL     -0.148026
    172 H81         3.7380    3.4820    0.1350 h1        1 MOL      0.115349
    173 H82         1.9570    2.5220    1.4540 hc        1 MOL      0.055063
    174 H83         2.5860    0.8650    1.0620 hc        1 MOL      0.055063
    175 H84         2.2550    1.5870   -1.4930 hc        1 MOL      0.029564
    176 H85         1.2690    2.8800   -0.9680 hc        1 MOL      0.029564
    177 N15         5.2790    1.8190    2.3950 n         1 MOL     -0.028508
    178 C54         6.1070    1.9680    3.5470 c3        1 MOL     -0.327632
    179 H86         6.8390    2.7550    3.3680 h1        1 MOL      0.112573
    180 H87         5.4910    2.2360    4.4050 h1        1 MOL      0.112573
    181 H88         6.6230    1.0300    3.7480 h1        1 MOL      0.112573
    182 H89         5.3260    0.8920    1.9840 hn        1 MOL      0.121040
    183 Ca1        -1.8960   -0.7760   -1.4210 Ca        1 MOL      1.719880
    184 O25        -0.6190   -3.3500   -1.6510 oh        1 MOL     -0.811945
    185 H90        -0.6190   -3.8810   -2.4470 ho        1 MOL      0.379741
    186 H91        -1.0010   -3.9190   -0.9770 ho        1 MOL      0.379741
    187 O26        -0.6590   -0.4760   -3.6990 oh        1 MOL     -0.811945
    188 H92        -1.0890    0.2470   -4.1410 ho        1 MOL      0.379741
    189 H93         0.2770   -0.3600   -3.8850 ho        1 MOL      0.379741
@<TRIPOS>BOND
     1    1    2 1   
     2    1    4 1   
     3    1    5 1   
     4    1    6 1   
     5    2    3 2   
     6    2    7 1   
     7    7    8 1   
     8    7   15 1   
     9    8    9 1   
    10    8   11 1   
    11    8   16 1   
    12    9   10 2   
    13    9   19 1   
    14   11   12 1   
    15   11   17 1   
    16   11   18 1   
    17   12   13 1   
    18   12   14 1   
    19   19   20 1   
    20   19   28 1   
    21   20   21 1   
    22   20   23 1   
    23   20   29 1   
    24   21   22 2   
    25   21   41 1   
    26   23   24 1   
    27   23   30 1   
    28   23   31 1   
    29   24   25 1   
    30   24   32 1   
    31   24   33 1   
    32   25   26 1   
    33   25   34 1   
    34   25   35 1   
    35   26   27 1   
    36   26   36 1   
    37   26   37 1   
    38   27   38 1   
    39   27   39 1   
    40   27   40 1   
    41   41   42 1   
    42   41   49 1   
    43   42   43 1   
    44   42   45 1   
    45   42   50 1   
    46   43   44 2   
    47   43   53 1   
    48   45   46 1   
    49   45   51 1   
    50   45   52 1   
    51   46   47 1   
    52   46   48 1   
    53   53   54 1   
    54   53   57 1   
    55   54   55 1   
    56   54   58 1   
    57   54   59 1   
    58   55   56 2   
    59   55   60 1   
    60   60   61 1   
    61   60   68 1   
    62   61   62 1   
    63   61   64 1   
    64   61   69 1   
    65   62   63 2   
    66   62   72 1   
    67   64   65 1   
    68   64   70 1   
    69   64   71 1   
    70   65   66 1   
    71   65   67 1   
    72   72   73 1   
    73   72   76 1   
    74   73   74 1   
    75   73   77 1   
    76   73   78 1   
    77   74   75 2   
    78   74   79 1   
    79   79   80 1   
    80   79   86 1   
    81   80   81 1   
    82   80   83 1   
    83   80   87 1   
    84   81   82 2   
    85   81   93 1   
    86   83   84 1   
    87   83   85 1   
    88   83   88 1   
    89   84   90 1   
    90   84   91 1   
    91   84   92 1   
    92   85   89 1   
    93   93   94 1   
    94   93  101 1   
    95   94   95 1   
    96   94   97 1   
    97   94  102 1   
    98   95   96 2   
    99   95  112 1   
   100   97   98 1   
   101   97   99 1   
   102   97  103 1   
   103   98  100 1   
   104   98  104 1   
   105   98  105 1   
   106   99  106 1   
   107   99  107 1   
   108   99  108 1   
   109  100  109 1   
   110  100  110 1   
   111  100  111 1   
   112  112  113 1   
   113  112  119 1   
   114  113  114 1   
   115  113  116 1   
   116  113  120 1   
   117  114  115 2   
   118  114  126 1   
   119  116  117 1   
   120  116  118 1   
   121  116  121 1   
   122  117  123 1   
   123  117  124 1   
   124  117  125 1   
   125  118  122 1   
   126  126  127 1   
   127  126  133 1   
   128  127  128 1   
   129  127  130 1   
   130  127  134 1   
   131  128  129 2   
   132  128  140 1   
   133  130  131 1   
   134  130  132 1   
   135  130  135 1   
   136  131  137 1   
   137  131  138 1   
   138  131  139 1   
   139  132  136 1   
   140  140  141 1   
   141  140  149 1   
   142  141  142 1   
   143  141  144 1   
   144  141  150 1   
   145  142  143 2   
   146  142  162 1   
   147  144  145 1   
   148  144  151 1   
   149  144  152 1   
   150  145  146 1   
   151  145  153 1   
   152  145  154 1   
   153  146  147 1   
   154  146  155 1   
   155  146  156 1   
   156  147  148 1   
   157  147  157 1   
   158  147  158 1   
   159  148  159 1   
   160  148  160 1   
   161  148  161 1   
   162  162  163 1   
   163  162  171 1   
   164  163  164 1   
   165  163  166 1   
   166  163  172 1   
   167  164  165 2   
   168  164  177 1   
   169  166  167 1   
   170  166  173 1   
   171  166  174 1   
   172  167  168 1   
   173  167  175 1   
   174  167  176 1   
   175  168  169 1   
   176  168  170 1   
   177  177  178 1   
   178  177  182 1   
   179  178  179 1   
   180  178  180 1   
   181  178  181 1   
   182  184  185 1   
   183  184  186 1   
   184  187  188 1   
   185  187  189 1   
@<TRIPOS>SUBSTRUCTURE
     1 MOL         1 TEMP              0 ****  ****    0 ROOT
