@<TRIPOS>MOLECULE
MOL
  175   173     1     0     0
SMALL
resp


@<TRIPOS>ATOM
      1 C1         -0.9440    4.0340    5.4460 c3        1 MOL     -0.284779
      2 C2         -1.2290    3.3680    4.0630 c         1 MOL      0.734558
      3 O1         -0.2940    3.4080    3.2350 o         1 MOL     -0.585424
      4 H1         -1.3940    5.0260    5.4710 hc        1 MOL      0.068314
      5 H2         -1.3710    3.4210    6.2390 hc        1 MOL      0.068314
      6 H3          0.1330    4.1200    5.5930 hc        1 MOL      0.068314
      7 N1         -2.4640    2.9610    3.7170 n         1 MOL     -0.699557
      8 C3         -2.8990    2.4750    2.3770 c3        1 MOL      0.256275
      9 C4         -3.3080    3.6500    1.5650 c         1 MOL      0.553667
     10 O2         -4.4270    4.1360    1.6650 o         1 MOL     -0.577712
     11 C5         -3.9750    1.3850    2.5900 c3        1 MOL     -0.131188
     12 C6         -4.4550    0.8260    1.3010 c         1 MOL      0.821504
     13 O3         -5.5980    0.4260    1.2120 o         1 MOL     -0.731460
     14 O4         -3.7240    0.8180    0.2790 o         1 MOL     -0.731460
     15 H4         -3.2350    2.8400    4.3710 hn        1 MOL      0.325448
     16 H5         -1.9890    2.0550    1.9560 h1        1 MOL     -0.068699
     17 H6         -4.8220    1.8710    3.0870 hc        1 MOL      0.012895
     18 H7         -3.5810    0.5720    3.1950 hc        1 MOL      0.012895
     19 N2         -2.4580    4.1320    0.6600 n         1 MOL     -0.326896
     20 C7         -2.7140    5.3050   -0.1040 c3        1 MOL     -0.010934
     21 C8         -3.6080    5.1660   -1.2960 c         1 MOL      0.539596
     22 O5         -3.8600    6.1200   -2.0280 o         1 MOL     -0.570619
     23 C9         -1.3250    5.6790   -0.7120 c3        1 MOL     -0.335333
     24 H8         -1.6230    3.5810    0.5510 hn        1 MOL      0.357171
     25 H9         -3.0720    6.1080    0.5290 h1        1 MOL      0.092307
     26 H10        -1.4280    6.5340   -1.3770 hc        1 MOL      0.104393
     27 H11        -0.5980    5.8600    0.0800 hc        1 MOL      0.104393
     28 H12        -0.9180    4.8820   -1.3520 hc        1 MOL      0.104393
     29 N3         -4.2310    3.9760   -1.4650 n         1 MOL     -0.218248
     30 C10        -5.1160    3.6070   -2.6440 c3        1 MOL      0.081229
     31 C11        -6.4210    2.9350   -2.1720 c         1 MOL      0.354889
     32 O6         -7.5220    3.4530   -2.3930 o         1 MOL     -0.562201
     33 C12        -4.3860    2.6410   -3.7030 c3        1 MOL     -0.267707
     34 C13        -3.6190    1.4400   -3.1560 c         1 MOL      0.801889
     35 O7         -4.1100    0.3410   -2.7580 o         1 MOL     -0.739537
     36 O8         -2.3650    1.4850   -3.1610 o         1 MOL     -0.739537
     37 H13        -4.1780    3.3650   -0.6760 hn        1 MOL      0.015950
     38 H14        -5.2310    4.4890   -3.2750 h1        1 MOL      0.092371
     39 H15        -3.6390    3.3260   -4.1110 hc        1 MOL      0.066723
     40 H16        -5.0760    2.4400   -4.5140 hc        1 MOL      0.066723
     41 N4         -6.3740    1.9330   -1.2760 n         1 MOL      0.029173
     42 C14        -7.5630    1.2880   -0.7760 c3        1 MOL     -0.215171
     43 C15        -7.6140   -0.2210   -1.0820 c         1 MOL      0.570538
     44 O9         -8.6590   -0.7710   -0.8440 o         1 MOL     -0.602005
     45 H17        -5.5390    1.4690   -0.9570 hn        1 MOL      0.206656
     46 H18        -8.4610    1.7840   -1.1580 h1        1 MOL      0.101027
     47 H19        -7.5900    1.3110    0.3050 h1        1 MOL      0.101027
     48 N5         -6.5580   -0.8610   -1.5910 n         1 MOL     -0.261514
     49 C16        -6.6740   -2.3380   -1.6960 c3        1 MOL     -0.042776
     50 C17        -6.4280   -3.0680   -0.3200 c         1 MOL      0.453077
     51 O10        -6.4300   -4.3040   -0.1790 o         1 MOL     -0.592119
     52 C18        -5.6660   -2.7770   -2.6680 c3        1 MOL     -0.192890
     53 C19        -4.2300   -2.9760   -2.1400 c         1 MOL      0.641186
     54 N6         -3.5030   -3.9690   -2.6560 n         1 MOL     -0.868236
     55 O11        -3.7530   -2.2050   -1.2780 o         1 MOL     -0.413040
     56 H20        -5.6840   -0.3930   -1.7910 hn        1 MOL      0.005233
     57 H21        -7.6560   -2.6560   -2.0220 h1        1 MOL      0.123368
     58 H22        -5.5560   -2.1130   -3.5210 hc        1 MOL      0.081778
     59 H23        -5.9210   -3.7400   -3.1150 hc        1 MOL      0.081778
     60 H24        -3.9840   -4.6570   -3.2080 hn        1 MOL      0.383575
     61 H25        -2.6750   -4.1510   -2.1150 hn        1 MOL      0.383575
     62 N7         -6.2920   -2.3740    0.7820 n         1 MOL     -0.113336
     63 C20        -6.2620   -2.8990    2.1300 c3        1 MOL     -0.300931
     64 C21        -5.0200   -3.6370    2.6050 c         1 MOL      0.555573
     65 O12        -4.9620   -4.1720    3.6780 o         1 MOL     -0.580806
     66 H26        -5.9700   -1.4240    0.7120 hn        1 MOL      0.254237
     67 H27        -7.1280   -3.5520    2.2600 h1        1 MOL      0.126497
     68 H28        -6.4160   -2.0210    2.7550 h1        1 MOL      0.126497
     69 N8         -3.9420   -3.5570    1.8250 n         1 MOL     -0.037324
     70 C22        -2.5580   -4.0180    2.1890 c3        1 MOL     -0.195786
     71 C23        -1.6000   -2.8000    1.9900 c         1 MOL      0.681385
     72 O13        -2.0310   -1.8520    1.3650 o         1 MOL     -0.634361
     73 C24        -2.0900   -5.2200    1.3100 c3        1 MOL      0.411082
     74 C25        -2.9720   -6.4600    1.2310 c3        1 MOL     -0.350367
     75 O14        -1.9150   -4.8280   -0.0430 oh        1 MOL     -0.714210
     76 H29        -3.9940   -3.0270    0.9730 hn        1 MOL      0.063262
     77 H30        -2.5440   -4.2610    3.2500 h1        1 MOL      0.086160
     78 H31        -1.1130   -5.5360    1.6780 h1        1 MOL      0.008646
     79 H32        -2.0180   -5.5860   -0.6170 ho        1 MOL      0.417508
     80 H33        -3.8720   -6.2030    0.6740 hc        1 MOL      0.086789
     81 H34        -2.4010   -7.2150    0.6780 hc        1 MOL      0.086789
     82 H35        -3.2760   -6.8300    2.2120 hc        1 MOL      0.086789
     83 N9         -0.3800   -2.7950    2.4430 n         1 MOL     -0.424968
     84 C26         0.6210   -1.8330    2.0430 c3        1 MOL     -0.156234
     85 C27         1.7220   -2.5420    1.1970 c         1 MOL      0.521953
     86 O15         2.3670   -3.4950    1.5900 o         1 MOL     -0.569316
     87 C28         1.1170   -0.9720    3.1840 c3        1 MOL      0.235941
     88 C29         1.7580   -1.6580    4.3730 c3        1 MOL     -0.227897
     89 C30         0.0390    0.0990    3.4710 c3        1 MOL     -0.521100
     90 C31         2.5100   -0.7260    5.2920 c3        1 MOL     -0.002436
     91 H36        -0.1470   -3.5450    3.0730 hn        1 MOL      0.243203
     92 H37         0.2090   -1.0960    1.3440 h1        1 MOL      0.030925
     93 H38         1.9660   -0.4740    2.7100 hc        1 MOL     -0.026979
     94 H39         2.5150   -2.3440    3.9780 hc        1 MOL      0.077471
     95 H40         1.0450   -2.1560    5.0210 hc        1 MOL      0.077471
     96 H41        -0.9190   -0.3840    3.6510 hc        1 MOL      0.164494
     97 H42         0.3200    0.7260    4.3100 hc        1 MOL      0.164494
     98 H43        -0.1410    0.6660    2.5540 hc        1 MOL      0.164494
     99 H44         2.8300   -1.2500    6.1940 hc        1 MOL     -0.001300
    100 H45         3.4060   -0.3000    4.8550 hc        1 MOL     -0.001300
    101 H46         1.7970   -0.0120    5.7190 hc        1 MOL     -0.001300
    102 N10         2.0270   -1.8930    0.0370 n         1 MOL     -0.312860
    103 C32         3.1330   -2.1040   -0.8220 c3        1 MOL      0.048620
    104 C33         4.4650   -1.3970   -0.3360 c         1 MOL      0.376898
    105 O16         4.4770   -0.5600    0.5010 o         1 MOL     -0.290491
    106 C34         2.6210   -1.7410   -2.2560 c3        1 MOL     -0.174465
    107 C35         3.5820   -2.1150   -3.3480 c         1 MOL      0.726471
    108 O17         3.3740   -1.7030   -4.4970 o         1 MOL     -0.712498
    109 O18         4.5670   -2.8750   -3.1100 o         1 MOL     -0.712498
    110 H47         1.3920   -1.1820   -0.3160 hn        1 MOL      0.424658
    111 H48         3.2250   -3.1880   -0.8980 h1        1 MOL      0.022428
    112 H49         2.4010   -0.6740   -2.1980 hc        1 MOL      0.010930
    113 H50         1.7070   -2.2830   -2.4700 hc        1 MOL      0.010930
    114 N11         5.5960   -1.7190   -0.8600 n         1 MOL     -0.399087
    115 C36         6.9160   -1.3250   -0.4620 c3        1 MOL      0.160996
    116 C37         7.0870    0.1650   -0.4810 c         1 MOL      0.468889
    117 O19         7.4340    0.7390    0.5530 o         1 MOL     -0.534661
    118 C38         8.0010   -2.1380   -1.2780 c3        1 MOL     -0.056377
    119 C39         9.4060   -1.7910   -0.9450 ca        1 MOL      0.054126
    120 C40        10.0120   -2.0470    0.3060 ca        1 MOL     -0.183068
    121 C41        10.1810   -1.0980   -1.8670 ca        1 MOL     -0.183068
    122 C42        11.2730   -1.5620    0.6630 ca        1 MOL     -0.063342
    123 C43        11.4980   -0.6470   -1.5330 ca        1 MOL     -0.063342
    124 C44        12.0660   -0.8650   -0.2370 ca        1 MOL     -0.156899
    125 H51         5.5280   -2.4140   -1.5780 hn        1 MOL      0.218105
    126 H52         6.9740   -1.6090    0.5880 h1        1 MOL      0.039060
    127 H53         7.6900   -2.0860   -2.3250 hc        1 MOL      0.051367
    128 H54         7.9100   -3.2060   -1.0680 hc        1 MOL      0.051367
    129 H55         9.3820   -2.5290    1.0500 ha        1 MOL      0.110711
    130 H56         9.8330   -0.8480   -2.8510 ha        1 MOL      0.110711
    131 H57        11.6400   -1.8270    1.6420 ha        1 MOL      0.089899
    132 H58        12.0880   -0.1690   -2.3070 ha        1 MOL      0.089899
    133 H59        13.0970   -0.6290    0.0130 ha        1 MOL      0.105916
    134 N12         6.6630    0.8870   -1.5150 n         1 MOL     -0.223978
    135 C45         6.6520    2.3120   -1.5740 c3        1 MOL      0.174892
    136 C46         5.7310    2.9240   -0.4710 c         1 MOL      0.298801
    137 O20         6.1170    3.8020    0.2820 o         1 MOL     -0.512457
    138 C47         6.0560    2.8120   -2.9210 c3        1 MOL     -0.234353
    139 C48         5.3150    1.5550   -3.4100 c3        1 MOL      0.003813
    140 C49         6.2070    0.4530   -2.8460 c3        1 MOL     -0.065014
    141 H60         7.6780    2.6510   -1.4870 h1        1 MOL      0.030952
    142 H61         5.3310    3.6280   -2.8850 hc        1 MOL      0.069867
    143 H62         6.9250    3.1070   -3.5100 hc        1 MOL      0.069867
    144 H63         4.3340    1.5980   -2.9410 hc        1 MOL      0.036311
    145 H64         5.2840    1.4070   -4.4860 hc        1 MOL      0.036311
    146 H65         5.5450   -0.4020   -2.8110 h1        1 MOL      0.067233
    147 H66         7.0510    0.4190   -3.5470 h1        1 MOL      0.067233
    148 N13         4.6220    2.2610   -0.1320 n         1 MOL     -0.217948
    149 C50         3.6750    2.7330    0.9230 c3        1 MOL     -0.126694
    150 C51         4.2870    2.5610    2.3240 c         1 MOL      0.462845
    151 O21         4.1020    3.4250    3.1750 o         1 MOL     -0.583164
    152 C52         2.3790    2.0310    0.8850 c3        1 MOL     -0.031557
    153 C53         1.5740    2.2180   -0.3800 c3        1 MOL      0.093199
    154 C54         0.3610    1.3520   -0.3970 c         1 MOL      0.883886
    155 O22        -0.7260    1.9460   -0.1820 o         1 MOL     -0.881079
    156 O23         0.5000    0.1620   -0.7690 o         1 MOL     -0.881079
    157 H67         4.4550    1.3550   -0.5320 hn        1 MOL      0.343046
    158 H68         3.5420    3.8060    0.7460 h1        1 MOL      0.115778
    159 H69         1.7400    2.2180    1.7510 hc        1 MOL      0.039419
    160 H70         2.4920    0.9470    0.9880 hc        1 MOL      0.039419
    161 H71         2.2140    1.9670   -1.2360 hc        1 MOL     -0.059438
    162 H72         1.2980    3.2490   -0.5590 hc        1 MOL     -0.059438
    163 N14         4.9520    1.4500    2.4260 n         1 MOL      0.132496
    164 C55         5.7210    1.1390    3.6590 c3        1 MOL     -0.432303
    165 H73         5.3940    1.7950    4.4660 h1        1 MOL      0.134108
    166 H74         5.5490    0.1010    3.9430 h1        1 MOL      0.134108
    167 H75         6.7840    1.2940    3.4740 h1        1 MOL      0.134108
    168 H76         4.9530    0.8100    1.6400 hn        1 MOL     -0.038529
    169 Ca1        -2.0960   -0.2260   -1.3250 Ca        1 MOL      1.786573
    170 O24        -0.7230   -2.7200   -1.4110 oh        1 MOL     -0.815529
    171 H77        -0.7920   -3.5120   -0.8720 ho        1 MOL      0.396409
    172 H78        -0.3700   -3.0350   -2.2450 ho        1 MOL      0.396409
    173 O25        -1.7900   -1.5520   -3.6220 oh        1 MOL     -0.815529
    174 H79        -1.5100   -1.1370   -4.4300 ho        1 MOL      0.396409
    175 H80        -1.6540   -2.4900   -3.7700 ho        1 MOL      0.396409
@<TRIPOS>BOND
     1    1    2 1   
     2    1    4 1   
     3    1    5 1   
     4    1    6 1   
     5    2    3 2   
     6    2    7 1   
     7    7    8 1   
     8    7   15 1   
     9    8    9 1   
    10    8   11 1   
    11    8   16 1   
    12    9   10 2   
    13    9   19 1   
    14   11   12 1   
    15   11   17 1   
    16   11   18 1   
    17   12   13 1   
    18   12   14 1   
    19   19   20 1   
    20   19   24 1   
    21   20   21 1   
    22   20   23 1   
    23   20   25 1   
    24   21   22 2   
    25   21   29 1   
    26   23   26 1   
    27   23   27 1   
    28   23   28 1   
    29   29   30 1   
    30   29   37 1   
    31   30   31 1   
    32   30   33 1   
    33   30   38 1   
    34   31   32 2   
    35   31   41 1   
    36   33   34 1   
    37   33   39 1   
    38   33   40 1   
    39   34   35 1   
    40   34   36 1   
    41   41   42 1   
    42   41   45 1   
    43   42   43 1   
    44   42   46 1   
    45   42   47 1   
    46   43   44 2   
    47   43   48 1   
    48   48   49 1   
    49   48   56 1   
    50   49   50 1   
    51   49   52 1   
    52   49   57 1   
    53   50   51 2   
    54   50   62 1   
    55   52   53 1   
    56   52   58 1   
    57   52   59 1   
    58   53   54 1   
    59   53   55 2   
    60   54   60 1   
    61   54   61 1   
    62   62   63 1   
    63   62   66 1   
    64   63   64 1   
    65   63   67 1   
    66   63   68 1   
    67   64   65 2   
    68   64   69 1   
    69   69   70 1   
    70   69   76 1   
    71   70   71 1   
    72   70   73 1   
    73   70   77 1   
    74   71   72 2   
    75   71   83 1   
    76   73   74 1   
    77   73   75 1   
    78   73   78 1   
    79   74   80 1   
    80   74   81 1   
    81   74   82 1   
    82   75   79 1   
    83   83   84 1   
    84   83   91 1   
    85   84   85 1   
    86   84   87 1   
    87   84   92 1   
    88   85   86 2   
    89   85  102 1   
    90   87   88 1   
    91   87   89 1   
    92   87   93 1   
    93   88   90 1   
    94   88   94 1   
    95   88   95 1   
    96   89   96 1   
    97   89   97 1   
    98   89   98 1   
    99   90   99 1   
   100   90  100 1   
   101   90  101 1   
   102  102  103 1   
   103  102  110 1   
   104  103  104 1   
   105  103  106 1   
   106  103  111 1   
   107  104  105 2   
   108  104  114 1   
   109  106  107 1   
   110  106  112 1   
   111  106  113 1   
   112  107  108 1   
   113  107  109 1   
   114  114  115 1   
   115  114  125 1   
   116  115  116 1   
   117  115  118 1   
   118  115  126 1   
   119  116  117 2   
   120  116  134 1   
   121  118  119 1   
   122  118  127 1   
   123  118  128 1   
   124  119  120 ar  
   125  119  121 ar  
   126  120  122 ar  
   127  120  129 1   
   128  121  123 ar  
   129  121  130 1   
   130  122  124 ar  
   131  122  131 1   
   132  123  124 ar  
   133  123  132 1   
   134  124  133 1   
   135  134  135 1   
   136  134  140 1   
   137  135  136 1   
   138  135  138 1   
   139  135  141 1   
   140  136  137 2   
   141  136  148 1   
   142  138  139 1   
   143  138  142 1   
   144  138  143 1   
   145  139  140 1   
   146  139  144 1   
   147  139  145 1   
   148  140  146 1   
   149  140  147 1   
   150  148  149 1   
   151  148  157 1   
   152  149  150 1   
   153  149  152 1   
   154  149  158 1   
   155  150  151 2   
   156  150  163 1   
   157  152  153 1   
   158  152  159 1   
   159  152  160 1   
   160  153  154 1   
   161  153  161 1   
   162  153  162 1   
   163  154  155 1   
   164  154  156 1   
   165  163  164 1   
   166  163  168 1   
   167  164  165 1   
   168  164  166 1   
   169  164  167 1   
   170  170  171 1   
   171  170  172 1   
   172  173  174 1   
   173  173  175 1   
@<TRIPOS>SUBSTRUCTURE
     1 MOL         1 TEMP              0 ****  ****    0 ROOT
