@<TRIPOS>MOLECULE
MOL
  179   176     1     0     0
SMALL
resp


@<TRIPOS>ATOM
      1 C1          2.3140    3.3540    4.1360 c3        1 MOL     -0.370872
      2 C2          1.3280    2.9550    3.0820 c         1 MOL      0.658790
      3 O1          1.7600    2.6900    1.9330 o         1 MOL     -0.561751
      4 H1          3.3220    3.1120    3.8010 hc        1 MOL      0.094271
      5 H2          2.2400    4.4260    4.3160 hc        1 MOL      0.094271
      6 H3          2.0990    2.8140    5.0590 hc        1 MOL      0.094271
      7 N1          0.0260    2.9670    3.3220 n         1 MOL     -0.634772
      8 C3         -0.9820    2.7220    2.2790 c3        1 MOL      0.011148
      9 C4         -1.6020    4.0970    1.7180 c         1 MOL      0.704970
     10 O2         -2.7560    4.4580    1.9600 o         1 MOL     -0.508648
     11 C5         -2.1470    1.7400    2.7390 c3        1 MOL      0.112917
     12 C6         -3.1360    1.3800    1.5960 c         1 MOL      0.401605
     13 O3         -4.3160    1.1430    1.9590 o         1 MOL     -0.590554
     14 O4         -2.7260    1.4190    0.3690 o         1 MOL     -0.590554
     15 H4         -0.2110    3.0550    4.3020 hn        1 MOL      0.343059
     16 H5         -0.4980    2.1800    1.4610 h1        1 MOL     -0.042717
     17 H6         -2.7050    2.1580    3.5820 hc        1 MOL     -0.000399
     18 H7         -1.6510    0.8420    3.0920 hc        1 MOL     -0.000399
     19 N2         -0.8670    4.8190    0.9040 n         1 MOL     -0.639468
     20 C7         -1.2510    6.1190    0.3620 c3        1 MOL      0.030210
     21 C8         -2.2940    6.0330   -0.6960 c         1 MOL      0.365143
     22 O5         -3.2090    6.8250   -0.6250 o         1 MOL     -0.503207
     23 C9          0.0080    6.7410   -0.2830 c3        1 MOL     -0.096572
     24 C10         1.1230    7.1190    0.7050 c3        1 MOL      0.060500
     25 C11         2.3320    7.7250    0.1390 c3        1 MOL     -0.033249
     26 C12         3.1700    8.5560    1.1310 c3        1 MOL      0.000656
     27 N3          4.0210    7.7710    1.9950 n4        1 MOL     -0.386531
     28 H8         -0.0440    4.3940    0.4850 hn        1 MOL      0.397615
     29 H9         -1.6010    6.8650    1.0770 h1        1 MOL      0.121697
     30 H10        -0.1550    7.6490   -0.8560 hc        1 MOL      0.064313
     31 H11         0.4380    6.0870   -1.0370 hc        1 MOL      0.064313
     32 H12         1.5330    6.3060    1.3070 hc        1 MOL     -0.002617
     33 H13         0.7630    7.9400    1.3220 hc        1 MOL     -0.002617
     34 H14         1.9570    8.4060   -0.6250 hc        1 MOL      0.041303
     35 H15         2.9660    6.9600   -0.3160 hc        1 MOL      0.041303
     36 H16         2.4820    9.1400    1.7340 hx        1 MOL      0.093674
     37 H17         3.8420    9.1980    0.5500 hx        1 MOL      0.093674
     38 H18         3.5450    7.1010    2.5820 hn        1 MOL      0.345091
     39 H19         4.6160    7.1960    1.4080 hn        1 MOL      0.345091
     40 H20         4.5760    8.3740    2.5900 hn        1 MOL      0.345091
     41 N4         -2.3260    5.1390   -1.6870 n         1 MOL     -0.243425
     42 C13        -3.4800    4.8460   -2.5740 c3        1 MOL      0.080155
     43 C14        -4.8550    4.3600   -1.9160 c         1 MOL      0.427014
     44 O6         -5.9100    4.8100   -2.2580 o         1 MOL     -0.541589
     45 C15        -3.0330    3.8840   -3.6720 c3        1 MOL     -0.422399
     46 C16        -2.4190    2.5740   -3.1280 c         1 MOL      0.901741
     47 O7         -3.0950    1.5040   -3.0090 o         1 MOL     -0.796468
     48 O8         -1.2150    2.4460   -2.7020 o         1 MOL     -0.796468
     49 H21        -1.4630    4.6590   -1.8790 hn        1 MOL      0.195388
     50 H22        -3.6990    5.8460   -2.9430 h1        1 MOL      0.078027
     51 H23        -2.2020    4.3040   -4.2590 hc        1 MOL      0.110747
     52 H24        -3.8660    3.6510   -4.3290 hc        1 MOL      0.110747
     53 N5         -4.8160    3.6160   -0.7810 n         1 MOL      0.201111
     54 C17        -5.8720    3.3350    0.1220 c3        1 MOL     -0.433199
     55 C18        -6.5300    1.9600   -0.0300 c         1 MOL      0.615557
     56 O9         -7.4600    1.6210    0.6780 o         1 MOL     -0.570351
     57 H25        -3.9510    3.1930   -0.4890 hn        1 MOL     -0.052968
     58 H26        -6.6100    4.1340    0.0400 h1        1 MOL      0.167256
     59 H27        -5.3480    3.4030    1.0840 h1        1 MOL      0.167256
     60 N6         -6.0010    1.0850   -0.8830 n         1 MOL     -0.307953
     61 C19        -6.6800   -0.1380   -1.2510 c3        1 MOL      0.071785
     62 C20        -6.6590   -1.1600   -0.0880 c         1 MOL      0.297208
     63 O10        -7.2730   -2.2430   -0.1300 o         1 MOL     -0.510589
     64 C21        -5.9300   -0.7380   -2.4950 c3        1 MOL     -0.313523
     65 C22        -4.7210   -1.5760   -2.1610 c         1 MOL      0.754137
     66 N7         -4.8070   -2.8180   -2.6380 n         1 MOL     -0.891177
     67 O11        -3.8030   -1.1340   -1.4940 o         1 MOL     -0.645468
     68 H28        -5.3240    1.4960   -1.5110 hn        1 MOL      0.157913
     69 H29        -7.7320    0.1070   -1.4000 h1        1 MOL      0.092525
     70 H30        -5.5770    0.1390   -3.0340 hc        1 MOL      0.115718
     71 H31        -6.7120   -1.2340   -3.0760 hc        1 MOL      0.115718
     72 H32        -5.6200   -3.2160   -3.0850 hn        1 MOL      0.412891
     73 H33        -4.0160   -3.4170   -2.4190 hn        1 MOL      0.412891
     74 N8         -5.9540   -0.8910    1.0500 n         1 MOL     -0.045723
     75 C23        -6.0030   -1.8220    2.2680 c3        1 MOL     -0.374152
     76 C24        -4.7440   -2.6660    2.4150 c         1 MOL      0.606360
     77 O12        -4.5460   -3.3770    3.3920 o         1 MOL     -0.609473
     78 H34        -5.5090    0.0030    1.1660 hn        1 MOL      0.270964
     79 H35        -6.8080   -2.5590    2.2100 h1        1 MOL      0.163788
     80 H36        -6.0440   -1.2970    3.2180 h1        1 MOL      0.163788
     81 N9         -3.8140   -2.6670    1.4710 n         1 MOL     -0.162788
     82 C25        -2.5820   -3.4470    1.4970 c3        1 MOL      0.160896
     83 C26        -1.3440   -2.5500    1.2130 c         1 MOL      0.329880
     84 O13        -1.5120   -1.4680    0.6090 o         1 MOL     -0.564415
     85 C27        -2.5750   -4.5450    0.3910 c3        1 MOL      0.024268
     86 C28        -3.7710   -5.5610    0.4740 ca        1 MOL      0.140278
     87 C29        -5.0310   -5.3950   -0.0850 ca        1 MOL     -0.292958
     88 C30        -3.5170   -6.8390    1.0840 ca        1 MOL     -0.292958
     89 C31        -5.9850   -6.4810   -0.1450 ca        1 MOL     -0.149539
     90 C32        -4.5360   -7.9150    1.0980 ca        1 MOL     -0.149539
     91 C33        -5.7340   -7.7490    0.3840 ca        1 MOL      0.253883
     92 O14        -6.6700   -8.7290    0.3500 oh        1 MOL     -0.487256
     93 H37        -3.9000   -2.1690    0.5950 hn        1 MOL      0.123264
     94 H38        -2.4150   -3.9910    2.4280 h1        1 MOL      0.031551
     95 H39        -1.6840   -5.1440    0.5780 hc        1 MOL     -0.012328
     96 H40        -2.5620   -4.1780   -0.6320 hc        1 MOL     -0.012328
     97 H41        -5.3070   -4.4370   -0.5100 ha        1 MOL      0.155480
     98 H42        -2.6120   -6.9860    1.6420 ha        1 MOL      0.155480
     99 H43        -6.9440   -6.2180   -0.5580 ha        1 MOL      0.121865
    100 H44        -4.2910   -8.8520    1.5580 ha        1 MOL      0.121865
    101 H45        -6.5130   -9.4810    0.9310 ho        1 MOL      0.373814
    102 N10        -0.1150   -2.9320    1.5890 n         1 MOL     -0.358288
    103 C34         1.1570   -2.3880    1.1710 c3        1 MOL     -0.001963
    104 C35         2.0290   -3.4040    0.4160 c         1 MOL      0.373842
    105 O15         1.8290   -4.6020    0.5270 o         1 MOL     -0.533188
    106 C36         1.8680   -1.6930    2.3050 c3        1 MOL      0.004412
    107 C37         2.3570   -2.5050    3.5010 c3        1 MOL     -0.299783
    108 C38         1.0470   -0.5470    2.8720 c3        1 MOL     -0.378228
    109 C39         3.2340   -1.8470    4.6100 c3        1 MOL     -0.091329
    110 H46        -0.1480   -3.7580    2.1620 hn        1 MOL      0.286465
    111 H47         0.8720   -1.7130    0.3560 h1        1 MOL      0.158144
    112 H48         2.7690   -1.2980    1.8410 hc        1 MOL      0.029099
    113 H49         3.0640   -3.2610    3.1510 hc        1 MOL      0.115796
    114 H50         1.5310   -3.0680    3.9190 hc        1 MOL      0.115796
    115 H51         0.7280    0.0610    2.0330 hc        1 MOL      0.149306
    116 H52         0.1060   -0.8440    3.3470 hc        1 MOL      0.149306
    117 H53         1.5990    0.0910    3.5670 hc        1 MOL      0.149306
    118 H54         3.9010   -2.5460    5.0990 hc        1 MOL      0.036540
    119 H55         3.8830   -1.1750    4.0470 hc        1 MOL      0.036540
    120 H56         2.6020   -1.3720    5.3590 hc        1 MOL      0.036540
    121 N11         3.0940   -2.9000   -0.1520 n         1 MOL     -0.018602
    122 C40         4.1600   -3.7070   -0.7920 c3        1 MOL     -0.092640
    123 C41         5.6470   -3.4060   -0.3650 c         1 MOL      0.442114
    124 O16         5.7480   -2.3190    0.2400 o         1 MOL     -0.394933
    125 C42         4.1500   -3.4880   -2.3550 c3        1 MOL     -0.079095
    126 O17         4.6370   -2.1960   -2.6370 oh        1 MOL     -0.552605
    127 H57         3.2430   -1.9130    0.0020 hn        1 MOL      0.113116
    128 H58         3.9650   -4.7660   -0.5950 h1        1 MOL      0.068985
    129 H59         3.1090   -3.6410   -2.6590 h1        1 MOL      0.108416
    130 H60         4.6710   -4.2540   -2.9280 h1        1 MOL      0.108416
    131 H61         3.9590   -1.5580   -2.3970 ho        1 MOL      0.413051
    132 N12         6.7080   -4.2210   -0.6530 n         1 MOL     -0.502296
    133 C43         8.1180   -3.8420   -0.3000 c3        1 MOL      0.199074
    134 C44         8.4580   -2.4370   -0.7490 c         1 MOL      0.410140
    135 O18         9.0650   -1.6700    0.0340 o         1 MOL     -0.510221
    136 C45         9.0460   -4.9200   -0.8610 c3        1 MOL     -0.321614
    137 H62         6.5110   -4.9840   -1.2830 hn        1 MOL      0.315059
    138 H63         8.2670   -3.8570    0.7800 h1        1 MOL      0.080483
    139 H64         8.9920   -5.8690   -0.3110 hc        1 MOL      0.097797
    140 H65         8.9120   -5.0970   -1.9260 hc        1 MOL      0.097797
    141 H66        10.0360   -4.4970   -0.6770 hc        1 MOL      0.097797
    142 N13         7.9340   -1.9870   -1.9080 n         1 MOL     -0.302055
    143 C46         8.1980   -0.5930   -2.3810 c3        1 MOL     -0.015952
    144 C47         7.5300    0.5100   -1.5370 c         1 MOL      0.388372
    145 O19         8.1410    1.5210   -1.2350 o         1 MOL     -0.498503
    146 C48         7.6710   -0.4570   -3.8710 c3        1 MOL     -0.200766
    147 H67         7.5850   -2.6640   -2.5780 hn        1 MOL      0.262033
    148 H68         9.2880   -0.5040   -2.4150 h1        1 MOL      0.106465
    149 H69         6.5900   -0.5950   -3.8960 hc        1 MOL      0.064148
    150 H70         7.8360    0.5210   -4.3260 hc        1 MOL      0.064148
    151 H71         8.2150   -1.1510   -4.5050 hc        1 MOL      0.064148
    152 N14         6.2430    0.2990   -1.2510 n         1 MOL     -0.115127
    153 C49         5.4770    1.0960   -0.3060 c3        1 MOL     -0.204561
    154 C50         6.0820    1.1490    1.1100 c         1 MOL      0.488035
    155 O20         6.1230    2.1920    1.7400 o         1 MOL     -0.574298
    156 C51         4.1040    0.5620   -0.2580 c3        1 MOL      0.123010
    157 C52         3.3090    0.8330   -1.5580 c3        1 MOL     -0.000353
    158 C53         1.9780    0.0980   -1.5380 c         1 MOL      0.764899
    159 O21         1.9690   -1.0280   -2.0540 o         1 MOL     -0.768988
    160 O22         0.9250    0.5620   -1.0350 o         1 MOL     -0.768988
    161 H72         5.9570   -0.6570   -1.4320 hn        1 MOL      0.171837
    162 H73         5.4360    2.1190   -0.6750 h1        1 MOL      0.111797
    163 H74         3.5830    1.1960    0.4610 hc        1 MOL     -0.004469
    164 H75         4.0520   -0.4970   -0.0160 hc        1 MOL     -0.004469
    165 H76         3.9540    0.4730   -2.3600 hc        1 MOL     -0.025914
    166 H77         3.1410    1.8710   -1.8020 hc        1 MOL     -0.025914
    167 N15         6.5330    0.0190    1.6480 n         1 MOL      0.005794
    168 C54         7.2400    0.0440    2.8870 c3        1 MOL     -0.436977
    169 H78         8.2980   -0.1520    2.7060 h1        1 MOL      0.138171
    170 H79         7.1270    1.0250    3.3500 h1        1 MOL      0.138171
    171 H80         6.8380   -0.7200    3.5510 h1        1 MOL      0.138171
    172 H81         6.4600   -0.8950    1.2150 hn        1 MOL      0.145079
    173 Ca1        -1.4950    0.1080   -1.5270 Ca        1 MOL      1.776389
    174 O23        -0.2140   -2.3520   -1.8760 oh        1 MOL     -0.795949
    175 H82         0.7010   -2.0640   -1.9350 ho        1 MOL      0.391447
    176 H83        -0.2140   -3.2380   -2.2400 ho        1 MOL      0.391447
    177 O24        -1.7360   -0.9910   -4.1540 oh        1 MOL     -0.795949
    178 H84        -2.0780   -1.8710   -4.2810 ho        1 MOL      0.391447
    179 H85        -1.6830   -0.6100   -5.0350 ho        1 MOL      0.391447
@<TRIPOS>BOND
     1    1    2 1   
     2    1    4 1   
     3    1    5 1   
     4    1    6 1   
     5    2    3 2   
     6    2    7 1   
     7    7    8 1   
     8    7   15 1   
     9    8    9 1   
    10    8   11 1   
    11    8   16 1   
    12    9   10 2   
    13    9   19 1   
    14   11   12 1   
    15   11   17 1   
    16   11   18 1   
    17   12   13 1   
    18   12   14 1   
    19   19   20 1   
    20   19   28 1   
    21   20   21 1   
    22   20   23 1   
    23   20   29 1   
    24   21   22 2   
    25   21   41 1   
    26   23   24 1   
    27   23   30 1   
    28   23   31 1   
    29   24   25 1   
    30   24   32 1   
    31   24   33 1   
    32   25   26 1   
    33   25   34 1   
    34   25   35 1   
    35   26   27 1   
    36   26   36 1   
    37   26   37 1   
    38   27   38 1   
    39   27   39 1   
    40   27   40 1   
    41   41   42 1   
    42   41   49 1   
    43   42   43 1   
    44   42   45 1   
    45   42   50 1   
    46   43   44 2   
    47   43   53 1   
    48   45   46 1   
    49   45   51 1   
    50   45   52 1   
    51   46   47 1   
    52   46   48 1   
    53   53   54 1   
    54   53   57 1   
    55   54   55 1   
    56   54   58 1   
    57   54   59 1   
    58   55   56 2   
    59   55   60 1   
    60   60   61 1   
    61   60   68 1   
    62   61   62 1   
    63   61   64 1   
    64   61   69 1   
    65   62   63 2   
    66   62   74 1   
    67   64   65 1   
    68   64   70 1   
    69   64   71 1   
    70   65   66 1   
    71   65   67 2   
    72   66   72 1   
    73   66   73 1   
    74   74   75 1   
    75   74   78 1   
    76   75   76 1   
    77   75   79 1   
    78   75   80 1   
    79   76   77 2   
    80   76   81 1   
    81   81   82 1   
    82   81   93 1   
    83   82   83 1   
    84   82   85 1   
    85   82   94 1   
    86   83   84 2   
    87   83  102 1   
    88   85   86 1   
    89   85   95 1   
    90   85   96 1   
    91   86   87 ar  
    92   86   88 ar  
    93   87   89 ar  
    94   87   97 1   
    95   88   90 ar  
    96   88   98 1   
    97   89   91 ar  
    98   89   99 1   
    99   90   91 ar  
   100   90  100 1   
   101   91   92 1   
   102   92  101 1   
   103  102  103 1   
   104  102  110 1   
   105  103  104 1   
   106  103  106 1   
   107  103  111 1   
   108  104  105 2   
   109  104  121 1   
   110  106  107 1   
   111  106  108 1   
   112  106  112 1   
   113  107  109 1   
   114  107  113 1   
   115  107  114 1   
   116  108  115 1   
   117  108  116 1   
   118  108  117 1   
   119  109  118 1   
   120  109  119 1   
   121  109  120 1   
   122  121  122 1   
   123  121  127 1   
   124  122  123 1   
   125  122  125 1   
   126  122  128 1   
   127  123  124 2   
   128  123  132 1   
   129  125  126 1   
   130  125  129 1   
   131  125  130 1   
   132  126  131 1   
   133  132  133 1   
   134  132  137 1   
   135  133  134 1   
   136  133  136 1   
   137  133  138 1   
   138  134  135 2   
   139  134  142 1   
   140  136  139 1   
   141  136  140 1   
   142  136  141 1   
   143  142  143 1   
   144  142  147 1   
   145  143  144 1   
   146  143  146 1   
   147  143  148 1   
   148  144  145 2   
   149  144  152 1   
   150  146  149 1   
   151  146  150 1   
   152  146  151 1   
   153  152  153 1   
   154  152  161 1   
   155  153  154 1   
   156  153  156 1   
   157  153  162 1   
   158  154  155 2   
   159  154  167 1   
   160  156  157 1   
   161  156  163 1   
   162  156  164 1   
   163  157  158 1   
   164  157  165 1   
   165  157  166 1   
   166  158  159 1   
   167  158  160 1   
   168  167  168 1   
   169  167  172 1   
   170  168  169 1   
   171  168  170 1   
   172  168  171 1   
   173  174  175 1   
   174  174  176 1   
   175  177  178 1   
   176  177  179 1   
@<TRIPOS>SUBSTRUCTURE
     1 MOL         1 TEMP              0 ****  ****    0 ROOT
