@<TRIPOS>MOLECULE
MOL
  179   176     1     0     0
SMALL
resp


@<TRIPOS>ATOM
      1 C1          1.6800    3.9080    4.1220 c3        1 MOL     -0.273033
      2 C2          0.8050    3.3710    2.9190 c         1 MOL      0.465348
      3 O1          1.2370    3.4430    1.7100 o         1 MOL     -0.510667
      4 H1          1.9020    3.0870    4.8040 hc        1 MOL      0.083305
      5 H2          2.6130    4.3220    3.7380 hc        1 MOL      0.083305
      6 H3          1.1310    4.6830    4.6550 hc        1 MOL      0.083305
      7 N1         -0.4290    2.9430    3.1930 n         1 MOL     -0.593552
      8 C3         -1.4150    2.6420    2.1060 c3        1 MOL      0.355605
      9 C4         -2.0250    3.8930    1.4590 c         1 MOL      0.421735
     10 O2         -3.2140    4.1730    1.6290 o         1 MOL     -0.463782
     11 C5         -2.3720    1.6000    2.4290 c3        1 MOL     -0.316366
     12 C6         -3.1580    1.0550    1.3250 c         1 MOL      0.766384
     13 O3         -2.7670    1.2430    0.1430 o         1 MOL     -0.678503
     14 O4         -4.1590    0.3360    1.5760 o         1 MOL     -0.678503
     15 H4         -0.7680    2.9870    4.1500 hn        1 MOL      0.356626
     16 H5         -0.8100    2.1510    1.3400 h1        1 MOL     -0.069017
     17 H6         -2.9880    2.1420    3.1490 hc        1 MOL      0.068800
     18 H7         -1.9530    0.7030    2.9000 hc        1 MOL      0.068800
     19 N2         -1.1670    4.7140    0.8420 n         1 MOL     -0.351863
     20 C7         -1.5450    6.0130    0.2470 c3        1 MOL      0.017329
     21 C8         -2.7780    6.0400   -0.7000 c         1 MOL      0.450228
     22 O5         -3.4260    7.0800   -0.7330 o         1 MOL     -0.535035
     23 C9         -0.2900    6.6690   -0.3170 c3        1 MOL     -0.242765
     24 C10         0.7630    6.9450    0.7750 c3        1 MOL      0.019344
     25 C11         1.9130    7.9290    0.4010 c3        1 MOL     -0.040555
     26 C12         3.0470    7.9190    1.4120 c3        1 MOL     -0.211920
     27 N3          2.6320    8.5110    2.6480 n4        1 MOL     -0.223123
     28 H8         -0.2180    4.3960    0.9610 hn        1 MOL      0.285576
     29 H9         -1.8460    6.6680    1.0680 h1        1 MOL      0.065324
     30 H10        -0.5290    7.6670   -0.6780 hc        1 MOL      0.110611
     31 H11         0.0500    6.0590   -1.1620 hc        1 MOL      0.110611
     32 H12         1.2630    5.9870    0.9230 hc        1 MOL      0.024794
     33 H13         0.2930    7.2820    1.6980 hc        1 MOL      0.024794
     34 H14         1.5760    8.9460    0.1580 hc        1 MOL      0.059396
     35 H15         2.3660    7.6110   -0.5370 hc        1 MOL      0.059396
     36 H16         3.9080    8.4780    1.0430 hx        1 MOL      0.176552
     37 H17         3.2220    6.8490    1.4580 hx        1 MOL      0.176552
     38 H18         3.3270    8.6600    3.3680 hn        1 MOL      0.294378
     39 H19         2.0100    9.2990    2.6150 hn        1 MOL      0.294378
     40 H20         2.0250    7.9580    3.2360 hn        1 MOL      0.294378
     41 N4         -3.0640    4.9350   -1.4150 n         1 MOL     -0.242705
     42 C13        -4.1710    4.6400   -2.3690 c3        1 MOL      0.015998
     43 C14        -5.3870    3.9140   -1.6250 c         1 MOL      0.437757
     44 O6         -6.5200    4.1110   -2.0410 o         1 MOL     -0.536257
     45 C15        -3.5770    3.7380   -3.4890 c3        1 MOL     -0.134991
     46 C16        -2.8290    2.5240   -2.8950 c         1 MOL      0.558707
     47 O7         -3.4290    1.4310   -3.0010 o         1 MOL     -0.668778
     48 O8         -1.7130    2.6940   -2.3220 o         1 MOL     -0.668778
     49 H21        -2.5010    4.1010   -1.2850 hn        1 MOL      0.204005
     50 H22        -4.6330    5.5190   -2.8270 h1        1 MOL      0.088370
     51 H23        -2.9700    4.3500   -4.1520 hc        1 MOL      0.046189
     52 H24        -4.4140    3.3690   -4.0920 hc        1 MOL      0.046189
     53 N5         -5.1790    3.2700   -0.4880 n         1 MOL      0.110009
     54 C17        -6.2150    2.7030    0.3220 c3        1 MOL     -0.285271
     55 C18        -6.9040    1.4500   -0.0770 c         1 MOL      0.559210
     56 O9         -8.1400    1.4060   -0.0640 o         1 MOL     -0.575191
     57 H25        -4.2390    3.2450   -0.0990 hn        1 MOL     -0.069961
     58 H26        -7.0200    3.4310    0.2780 h1        1 MOL      0.113953
     59 H27        -5.8400    2.5960    1.3470 h1        1 MOL      0.113953
     60 N6         -6.1420    0.4700   -0.5140 n         1 MOL     -0.104449
     61 C19        -6.6070   -0.8930   -0.9580 c3        1 MOL     -0.196784
     62 C20        -6.4800   -2.0570    0.0480 c         1 MOL      0.292590
     63 O10        -6.9510   -3.1680   -0.2250 o         1 MOL     -0.473615
     64 C21        -5.8510   -1.2260   -2.3070 c3        1 MOL     -0.000057
     65 C22        -4.5820   -1.9710   -2.1440 c         1 MOL      0.358251
     66 N7         -4.4310   -3.0710   -2.7880 n         1 MOL     -0.465244
     67 O11        -3.5850   -1.5000   -1.6020 o         1 MOL     -0.515671
     68 H28        -5.1770    0.7580   -0.5030 hn        1 MOL      0.024776
     69 H29        -7.6410   -0.7730   -1.2680 h1        1 MOL      0.171295
     70 H30        -5.5710   -0.3400   -2.8540 hc        1 MOL      0.065464
     71 H31        -6.5300   -1.6800   -3.0240 hc        1 MOL      0.065464
     72 H32        -5.1420   -3.3080   -3.4650 hn        1 MOL      0.281529
     73 H33        -3.5240   -3.5120   -2.7550 hn        1 MOL      0.281529
     74 N8         -5.8040   -1.9010    1.1820 n         1 MOL      0.036073
     75 C23        -5.7300   -2.7880    2.3120 c3        1 MOL     -0.412565
     76 C24        -4.3060   -3.4630    2.4130 c         1 MOL      0.582254
     77 O12        -4.1360   -4.4440    3.1250 o         1 MOL     -0.552764
     78 H34        -5.3770   -0.9790    1.2810 hn        1 MOL      0.180492
     79 H35        -6.4090   -3.6400    2.2310 h1        1 MOL      0.173369
     80 H36        -5.9070   -2.2330    3.2330 h1        1 MOL      0.173369
     81 N9         -3.3800   -3.0590    1.5710 n         1 MOL     -0.409765
     82 C25        -2.0540   -3.6570    1.3220 c3        1 MOL      0.260233
     83 C26        -0.9490   -2.6400    1.1480 c         1 MOL      0.314717
     84 O13        -1.1940   -1.6230    0.4650 o         1 MOL     -0.545098
     85 C27        -2.1630   -4.5740    0.0790 c3        1 MOL      0.143353
     86 C28        -3.0280   -5.7830    0.3090 ca        1 MOL      0.048372
     87 C29        -4.4030   -5.6930    0.0740 ca        1 MOL     -0.259795
     88 C30        -2.5460   -7.0100    0.8600 ca        1 MOL     -0.259795
     89 C31        -5.3340   -6.7010    0.3470 ca        1 MOL     -0.169270
     90 C32        -3.4730   -7.9970    1.2260 ca        1 MOL     -0.169270
     91 C33        -4.8240   -7.8820    0.9690 ca        1 MOL      0.302021
     92 O14        -5.6240   -8.8380    1.3640 oh        1 MOL     -0.440356
     93 H37        -3.5740   -2.2140    1.0440 hn        1 MOL      0.250885
     94 H38        -1.8900   -4.2710    2.2130 h1        1 MOL      0.001950
     95 H39        -1.1490   -4.9280   -0.1270 hc        1 MOL     -0.038425
     96 H40        -2.5460   -3.9930   -0.7620 hc        1 MOL     -0.038425
     97 H41        -4.7370   -4.7130   -0.2470 ha        1 MOL      0.136584
     98 H42        -1.5260   -7.0960    1.2020 ha        1 MOL      0.136584
     99 H43        -6.4130   -6.6560    0.3050 ha        1 MOL      0.126189
    100 H44        -3.1350   -8.8300    1.8290 ha        1 MOL      0.126189
    101 H45        -5.1120   -9.4440    1.9080 ho        1 MOL      0.329713
    102 N10         0.2820   -2.9730    1.3540 n         1 MOL     -0.272157
    103 C34         1.5280   -2.2510    0.9700 c3        1 MOL      0.057924
    104 C35         2.6310   -3.2480    0.4110 c         1 MOL      0.466411
    105 O15         2.8450   -4.3290    0.9850 o         1 MOL     -0.547702
    106 C36         2.0740   -1.2810    2.0890 c3        1 MOL      0.218300
    107 C37         2.3010   -1.8750    3.4670 c3        1 MOL      0.014356
    108 C38         1.0200   -0.1200    2.2520 c3        1 MOL     -0.882186
    109 C39         2.6560   -0.9520    4.6330 c3        1 MOL     -0.291588
    110 H46         0.4850   -3.8260    1.8360 hn        1 MOL      0.212653
    111 H47         1.2100   -1.6460    0.1200 h1        1 MOL      0.061870
    112 H48         3.0550   -0.9050    1.7820 hc        1 MOL     -0.077305
    113 H49         2.9360   -2.7600    3.3730 hc        1 MOL      0.019294
    114 H50         1.3640   -2.3420    3.7670 hc        1 MOL      0.019294
    115 H51         0.1250   -0.5240    2.7150 hc        1 MOL      0.267385
    116 H52         1.4260    0.6880    2.8630 hc        1 MOL      0.267385
    117 H53         0.8460    0.3230    1.2710 hc        1 MOL      0.267385
    118 H54         3.5830   -0.4200    4.4290 hc        1 MOL      0.078442
    119 H55         1.9340   -0.1510    4.7670 hc        1 MOL      0.078442
    120 H56         2.6540   -1.5810    5.5290 hc        1 MOL      0.078442
    121 N11         3.3300   -2.7540   -0.5730 n         1 MOL     -0.279138
    122 C40         4.5100   -3.4900   -1.0270 c3        1 MOL      0.070914
    123 C41         5.7380   -3.1480   -0.2390 c         1 MOL      0.398156
    124 O16         5.8300   -2.1040    0.4110 o         1 MOL     -0.408876
    125 C42         4.7010   -3.2900   -2.5670 c3        1 MOL     -0.218563
    126 O17         5.4320   -2.1480   -2.7540 oh        1 MOL     -0.350954
    127 H57         3.1080   -1.9520   -1.1480 hn        1 MOL      0.240090
    128 H58         4.3120   -4.5520   -0.9380 h1        1 MOL      0.049939
    129 H59         3.7350   -3.1890   -3.0690 h1        1 MOL      0.119546
    130 H60         5.2760   -4.0590   -3.0810 h1        1 MOL      0.119546
    131 H61         5.1510   -1.7340   -3.5720 ho        1 MOL      0.385537
    132 N12         6.7630   -4.0120   -0.3450 n         1 MOL     -0.355138
    133 C43         8.1240   -3.6650    0.0290 c3        1 MOL      0.150618
    134 C44         8.6600   -2.2480   -0.3510 c         1 MOL      0.475582
    135 O18         9.3630   -1.6000    0.4450 o         1 MOL     -0.525246
    136 C45         9.1120   -4.6820   -0.6290 c3        1 MOL     -0.332962
    137 H62         6.5060   -4.8890   -0.7780 hn        1 MOL      0.274886
    138 H63         8.1550   -3.7660    1.1190 h1        1 MOL      0.062304
    139 H64        10.1500   -4.3860   -0.4620 hc        1 MOL      0.098989
    140 H65         8.8710   -5.6350   -0.1560 hc        1 MOL      0.098989
    141 H66         8.9770   -4.7710   -1.7060 hc        1 MOL      0.098989
    142 N13         8.2090   -1.7650   -1.5480 n         1 MOL     -0.369288
    143 C46         8.4720   -0.4050   -1.9650 c3        1 MOL      0.178787
    144 C47         7.6410    0.7560   -1.4280 c         1 MOL      0.323406
    145 O19         8.1310    1.8600   -1.3880 o         1 MOL     -0.513428
    146 C48         8.4670   -0.5040   -3.5350 c3        1 MOL     -0.181458
    147 H67         7.4230   -2.2530   -1.9340 hn        1 MOL      0.174430
    148 H68         9.5130   -0.1470   -1.7580 h1        1 MOL      0.080741
    149 H69         7.4970   -0.7700   -3.9410 hc        1 MOL      0.043440
    150 H70         8.7200    0.5180   -3.8140 hc        1 MOL      0.043440
    151 H71         9.2680   -1.1460   -3.8850 hc        1 MOL      0.043440
    152 N14         6.3880    0.5110   -1.1130 n         1 MOL      0.050635
    153 C49         5.3640    1.4380   -0.4880 c3        1 MOL     -0.182556
    154 C50         5.7450    1.7740    0.9850 c         1 MOL      0.413580
    155 O20         5.6290    2.9510    1.4240 o         1 MOL     -0.563282
    156 C51         3.9760    0.8330   -0.4550 c3        1 MOL     -0.031777
    157 C52         3.2750    0.9310   -1.7780 c3        1 MOL      0.020111
    158 C53         1.7870    0.3880   -1.7510 c         1 MOL      0.594026
    159 O21         0.8550    1.2010   -1.6360 o         1 MOL     -0.676178
    160 O22         1.5890   -0.8430   -1.9110 o         1 MOL     -0.676178
    161 H72         6.0120   -0.4100   -1.2410 hn        1 MOL     -0.079929
    162 H73         5.3910    2.4450   -0.9140 h1        1 MOL      0.135309
    163 H74         3.3180    1.3640    0.2260 hc        1 MOL      0.083719
    164 H75         3.9490   -0.1770   -0.0510 hc        1 MOL      0.083719
    165 H76         3.7970    0.3710   -2.5520 hc        1 MOL     -0.018740
    166 H77         3.4260    1.9530   -2.1280 hc        1 MOL     -0.018740
    167 N15         6.3540    0.8590    1.7150 n         1 MOL     -0.048523
    168 C54         7.0160    1.0570    3.0110 c3        1 MOL     -0.270670
    169 H78         7.0250    0.1160    3.5610 h1        1 MOL      0.106232
    170 H79         8.0410    1.3920    2.8480 h1        1 MOL      0.106232
    171 H80         6.4740    1.8080    3.5860 h1        1 MOL      0.106232
    172 H81         6.5160   -0.0640    1.3240 hn        1 MOL      0.162989
    173 Ca1        -1.4970    0.0820   -1.6380 Ca        1 MOL      1.720475
    174 O23        -0.9870   -2.3240   -3.0250 oh        1 MOL     -0.799387
    175 H82        -0.3300   -3.0280   -3.0350 ho        1 MOL      0.399062
    176 H83        -1.3890   -2.3660   -3.8910 ho        1 MOL      0.399062
    177 O24        -1.0950    0.4880   -4.2590 oh        1 MOL     -0.799387
    178 H84        -1.3470    0.2080   -5.1340 ho        1 MOL      0.399062
    179 H85        -1.1910    1.4370   -4.2780 ho        1 MOL      0.399062
@<TRIPOS>BOND
     1    1    2 1   
     2    1    4 1   
     3    1    5 1   
     4    1    6 1   
     5    2    3 2   
     6    2    7 1   
     7    7    8 1   
     8    7   15 1   
     9    8    9 1   
    10    8   11 1   
    11    8   16 1   
    12    9   10 2   
    13    9   19 1   
    14   11   12 1   
    15   11   17 1   
    16   11   18 1   
    17   12   13 1   
    18   12   14 1   
    19   19   20 1   
    20   19   28 1   
    21   20   21 1   
    22   20   23 1   
    23   20   29 1   
    24   21   22 2   
    25   21   41 1   
    26   23   24 1   
    27   23   30 1   
    28   23   31 1   
    29   24   25 1   
    30   24   32 1   
    31   24   33 1   
    32   25   26 1   
    33   25   34 1   
    34   25   35 1   
    35   26   27 1   
    36   26   36 1   
    37   26   37 1   
    38   27   38 1   
    39   27   39 1   
    40   27   40 1   
    41   41   42 1   
    42   41   49 1   
    43   42   43 1   
    44   42   45 1   
    45   42   50 1   
    46   43   44 2   
    47   43   53 1   
    48   45   46 1   
    49   45   51 1   
    50   45   52 1   
    51   46   47 1   
    52   46   48 1   
    53   53   54 1   
    54   53   57 1   
    55   54   55 1   
    56   54   58 1   
    57   54   59 1   
    58   55   56 2   
    59   55   60 1   
    60   60   61 1   
    61   60   68 1   
    62   61   62 1   
    63   61   64 1   
    64   61   69 1   
    65   62   63 2   
    66   62   74 1   
    67   64   65 1   
    68   64   70 1   
    69   64   71 1   
    70   65   66 1   
    71   65   67 2   
    72   66   72 1   
    73   66   73 1   
    74   74   75 1   
    75   74   78 1   
    76   75   76 1   
    77   75   79 1   
    78   75   80 1   
    79   76   77 2   
    80   76   81 1   
    81   81   82 1   
    82   81   93 1   
    83   82   83 1   
    84   82   85 1   
    85   82   94 1   
    86   83   84 2   
    87   83  102 1   
    88   85   86 1   
    89   85   95 1   
    90   85   96 1   
    91   86   87 ar  
    92   86   88 ar  
    93   87   89 ar  
    94   87   97 1   
    95   88   90 ar  
    96   88   98 1   
    97   89   91 ar  
    98   89   99 1   
    99   90   91 ar  
   100   90  100 1   
   101   91   92 1   
   102   92  101 1   
   103  102  103 1   
   104  102  110 1   
   105  103  104 1   
   106  103  106 1   
   107  103  111 1   
   108  104  105 2   
   109  104  121 1   
   110  106  107 1   
   111  106  108 1   
   112  106  112 1   
   113  107  109 1   
   114  107  113 1   
   115  107  114 1   
   116  108  115 1   
   117  108  116 1   
   118  108  117 1   
   119  109  118 1   
   120  109  119 1   
   121  109  120 1   
   122  121  122 1   
   123  121  127 1   
   124  122  123 1   
   125  122  125 1   
   126  122  128 1   
   127  123  124 2   
   128  123  132 1   
   129  125  126 1   
   130  125  129 1   
   131  125  130 1   
   132  126  131 1   
   133  132  133 1   
   134  132  137 1   
   135  133  134 1   
   136  133  136 1   
   137  133  138 1   
   138  134  135 2   
   139  134  142 1   
   140  136  139 1   
   141  136  140 1   
   142  136  141 1   
   143  142  143 1   
   144  142  147 1   
   145  143  144 1   
   146  143  146 1   
   147  143  148 1   
   148  144  145 2   
   149  144  152 1   
   150  146  149 1   
   151  146  150 1   
   152  146  151 1   
   153  152  153 1   
   154  152  161 1   
   155  153  154 1   
   156  153  156 1   
   157  153  162 1   
   158  154  155 2   
   159  154  167 1   
   160  156  157 1   
   161  156  163 1   
   162  156  164 1   
   163  157  158 1   
   164  157  165 1   
   165  157  166 1   
   166  158  159 1   
   167  158  160 1   
   168  167  168 1   
   169  167  172 1   
   170  168  169 1   
   171  168  170 1   
   172  168  171 1   
   173  174  175 1   
   174  174  176 1   
   175  177  178 1   
   176  177  179 1   
@<TRIPOS>SUBSTRUCTURE
     1 MOL         1 TEMP              0 ****  ****    0 ROOT
