@<TRIPOS>MOLECULE
MOL
  186   183     1     0     0
SMALL
resp


@<TRIPOS>ATOM
      1 C1          0.8030   -1.8500    6.5720 c3        1 MOL     -0.370044
      2 C2          1.0820   -1.9120    5.0600 c         1 MOL      0.756014
      3 O1          0.2020   -2.2860    4.3320 o         1 MOL     -0.597167
      4 H1          0.4570   -2.8250    6.9180 hc        1 MOL      0.083253
      5 H2          1.7180   -1.5810    7.1000 hc        1 MOL      0.083253
      6 H3          0.0350   -1.1020    6.7700 hc        1 MOL      0.083253
      7 N1          2.2340   -1.5930    4.5070 n         1 MOL     -0.604017
      8 C3          2.6840   -1.5700    3.0870 c3        1 MOL      0.026992
      9 C4          3.1300   -2.9290    2.6150 c         1 MOL      0.671215
     10 O2          4.1080   -3.4390    3.1400 o         1 MOL     -0.582840
     11 C5          3.8180   -0.5330    3.0060 c3        1 MOL     -0.322833
     12 C6          4.4870   -0.4320    1.6640 c         1 MOL      0.858182
     13 O3          5.5750    0.2030    1.6270 o         1 MOL     -0.696446
     14 O4          3.9010   -0.8560    0.6370 o         1 MOL     -0.696446
     15 H4          2.9550   -1.4720    5.1980 hn        1 MOL      0.314733
     16 H5          1.8610   -1.2440    2.4480 h1        1 MOL      0.104601
     17 H6          4.5980   -0.6480    3.7580 hc        1 MOL      0.081942
     18 H7          3.5190    0.4830    3.2700 hc        1 MOL      0.081942
     19 N2          2.3970   -3.4910    1.6490 n         1 MOL     -0.467219
     20 C7          2.3650   -4.9090    1.2680 c3        1 MOL     -0.040887
     21 C8          3.3480   -5.1760    0.0700 c         1 MOL      0.419350
     22 O5          3.9190   -6.2520    0.0630 o         1 MOL     -0.567865
     23 C9          0.9300   -5.3290    0.9300 c3        1 MOL      0.232053
     24 C10         0.0320   -5.1390    2.1880 c3        1 MOL     -0.041607
     25 C11         0.8470   -6.7820    0.4600 c3        1 MOL     -0.310853
     26 C12        -1.4940   -5.3280    1.8780 c3        1 MOL     -0.040022
     27 H8          1.6890   -2.9360    1.1980 hn        1 MOL      0.232455
     28 H9          2.6820   -5.5890    2.0660 h1        1 MOL      0.087422
     29 H10         0.4580   -4.7240    0.1620 hc        1 MOL      0.013778
     30 H11         0.1150   -4.0850    2.4420 hc        1 MOL      0.016358
     31 H12         0.4050   -5.6870    3.0520 hc        1 MOL      0.016358
     32 H13        -0.1580   -7.0810    0.1440 hc        1 MOL      0.061920
     33 H14         1.5130   -6.8070   -0.3950 hc        1 MOL      0.061920
     34 H15         1.1950   -7.4780    1.2170 hc        1 MOL      0.061920
     35 H16        -2.0760   -4.7150    2.5800 hc        1 MOL     -0.002096
     36 H17        -1.9100   -5.0980    0.9010 hc        1 MOL     -0.002096
     37 H18        -1.7620   -6.3700    2.0940 hc        1 MOL     -0.002096
     38 N3          3.5820   -4.2320   -0.8090 n         1 MOL     -0.188325
     39 C13         4.5260   -4.3430   -1.8860 c3        1 MOL      0.041579
     40 C14         5.8770   -3.6600   -1.6280 c         1 MOL      0.547688
     41 O6          6.8830   -4.0930   -2.1480 o         1 MOL     -0.593852
     42 C15         3.9750   -3.8970   -3.2600 c3        1 MOL     -0.186539
     43 C16         3.2680   -2.5570   -3.3380 c         1 MOL      0.783383
     44 O7          3.4650   -1.7130   -2.4530 o         1 MOL     -0.722755
     45 O8          2.6350   -2.2440   -4.4050 o         1 MOL     -0.722755
     46 H19         2.9790   -3.4280   -0.6870 hn        1 MOL      0.137590
     47 H20         4.8210   -5.3920   -1.9690 h1        1 MOL      0.052699
     48 H21         3.2630   -4.6310   -3.6300 hc        1 MOL      0.039394
     49 H22         4.7790   -3.8370   -3.9880 hc        1 MOL      0.039394
     50 N4          5.9570   -2.7520   -0.6680 n         1 MOL     -0.076722
     51 C17         7.1750   -2.1850   -0.1030 c3        1 MOL     -0.324207
     52 C18         7.6840   -1.0190   -1.0100 c         1 MOL      0.590197
     53 O9          8.5230   -1.2390   -1.9020 o         1 MOL     -0.558439
     54 H23         5.1150   -2.2640   -0.4050 hn        1 MOL      0.098769
     55 H24         7.9200   -2.9760   -0.0000 h1        1 MOL      0.112686
     56 H25         6.8770   -1.7920    0.8660 h1        1 MOL      0.112686
     57 N5          7.1730    0.1920   -0.7900 n         1 MOL     -0.360563
     58 C19         7.5050    1.4080   -1.4840 c3        1 MOL      0.231794
     59 C20         7.7270    2.5560   -0.5230 c         1 MOL      0.286504
     60 O10         8.5890    3.4270   -0.7010 o         1 MOL     -0.552461
     61 C21         6.5320    1.7600   -2.5710 c3        1 MOL     -0.152653
     62 C22         5.0580    1.5620   -2.3010 c         1 MOL      0.676452
     63 O11         4.3260    1.1770   -3.2730 o         1 MOL     -0.684480
     64 O12         4.5620    1.6360   -1.1410 o         1 MOL     -0.684480
     65 H26         6.5680    0.3600    0.0000 hn        1 MOL      0.125408
     66 H27         8.4070    1.2310   -2.0780 h1        1 MOL      0.001875
     67 H28         6.9020    1.1200   -3.3800 hc        1 MOL      0.043939
     68 H29         6.6060    2.7930   -2.9120 hc        1 MOL      0.043939
     69 N6          6.9000    2.5660    0.5220 n         1 MOL     -0.067578
     70 C23         6.8040    3.5700    1.6060 c3        1 MOL     -0.049279
     71 C24         5.4220    4.2490    1.7650 c         1 MOL      0.506473
     72 O13         5.2400    5.2130    2.5430 o         1 MOL     -0.625654
     73 H30         6.2670    1.8140    0.7640 hn        1 MOL      0.188910
     74 H31         7.6010    4.3140    1.5200 h1        1 MOL      0.042836
     75 H32         6.9650    3.0500    2.5570 h1        1 MOL      0.042836
     76 N7          4.4260    3.7370    1.0640 n         1 MOL     -0.188922
     77 C25         3.0400    4.2670    1.0610 c3        1 MOL     -0.086849
     78 C26         2.0940    3.0690    1.2500 c         1 MOL      0.607853
     79 O14         2.3940    1.8800    1.0760 o         1 MOL     -0.682659
     80 C27         2.8370    4.8800   -0.3520 c3        1 MOL      0.324164
     81 C28         3.4500    6.3240   -0.3880 c3        1 MOL     -0.442920
     82 C29         3.3480    6.8440   -1.8430 c         1 MOL      0.737616
     83 N8          4.2570    7.6640   -2.2420 n         1 MOL     -0.792679
     84 O15         2.4700    6.5060   -2.6460 o         1 MOL     -0.598588
     85 H33         4.6290    3.0680    0.3340 hn        1 MOL      0.101893
     86 H34         2.8940    5.0160    1.8320 h1        1 MOL      0.088339
     87 H35         1.7680    4.9310   -0.5340 hc        1 MOL     -0.030788
     88 H36         3.2820    4.2200   -1.0880 hc        1 MOL     -0.030788
     89 H37         4.5180    6.3060   -0.1950 hc        1 MOL      0.098888
     90 H38         2.8480    6.9080    0.3050 hc        1 MOL      0.098888
     91 H39         5.0410    7.8450   -1.6410 hn        1 MOL      0.358977
     92 H40         4.1860    8.0060   -3.1960 hn        1 MOL      0.358977
     93 N9          0.9390    3.3660    1.7680 n         1 MOL     -0.388326
     94 C30        -0.2480    2.5100    1.8680 c3        1 MOL      0.138143
     95 C31        -1.4440    3.1970    1.1790 c         1 MOL      0.337402
     96 O16        -1.8120    4.3190    1.5840 o         1 MOL     -0.538528
     97 C32        -0.6270    2.3760    3.3390 c3        1 MOL      0.353771
     98 C33        -1.6930    1.3120    3.4960 c3        1 MOL     -0.410528
     99 C34         0.5590    2.0790    4.2700 c3        1 MOL     -0.410528
    100 H41         0.8580    4.2820    2.1800 hn        1 MOL      0.215821
    101 H42        -0.0300    1.5360    1.4390 h1        1 MOL      0.101340
    102 H43        -1.0620    3.3190    3.6730 hc        1 MOL     -0.055901
    103 H44        -1.8610    1.2290    4.5680 hc        1 MOL      0.093628
    104 H45        -2.5880    1.6340    2.9620 hc        1 MOL      0.093628
    105 H46        -1.2840    0.3760    3.1210 hc        1 MOL      0.093628
    106 H47         1.0240    1.1660    3.9010 hc        1 MOL      0.093628
    107 H48         1.2990    2.8800    4.3290 hc        1 MOL      0.093628
    108 H49         0.1140    1.9410    5.2620 hc        1 MOL      0.093628
    109 N10        -2.0810    2.4480    0.2020 n         1 MOL     -0.170725
    110 C35        -3.2560    2.9050   -0.5610 c3        1 MOL      0.218215
    111 C36        -4.5420    2.2680   -0.0470 c         1 MOL      0.200673
    112 O17        -4.4810    1.3160    0.7310 o         1 MOL     -0.166465
    113 C37        -2.8900    2.6460   -1.9950 c3        1 MOL     -0.216839
    114 C38        -3.1320    1.2930   -2.4290 c         1 MOL      0.717511
    115 N11        -2.1340    0.4520   -2.3780 n         1 MOL     -0.868790
    116 O18        -4.2550    1.0440   -2.8030 o         1 MOL     -0.603517
    117 H50        -1.7950    1.4940    0.0890 hn        1 MOL     -0.042979
    118 H51        -3.3960    3.9860   -0.4730 h1        1 MOL      0.039486
    119 H52        -1.8730    2.9800   -2.2000 hc        1 MOL      0.050443
    120 H53        -3.5380    3.2700   -2.6230 hc        1 MOL      0.050443
    121 H54        -1.2700    0.7870   -1.9750 hn        1 MOL      0.447948
    122 H55        -2.3610   -0.4430   -2.7870 hn        1 MOL      0.447948
    123 N12        -5.6890    2.6340   -0.5700 n         1 MOL     -0.435057
    124 C39        -6.9970    1.9410   -0.2680 c3        1 MOL      0.110594
    125 C40        -6.9920    0.3990   -0.3050 c         1 MOL      0.531920
    126 O19        -7.5250   -0.2480    0.6220 o         1 MOL     -0.539100
    127 C41        -8.1120    2.4470   -1.0850 c3        1 MOL     -0.076491
    128 C42        -9.4900    2.1000   -0.6370 ca        1 MOL     -0.227991
    129 C43        -9.9880    2.5320    0.6360 ca        1 MOL      0.071995
    130 C44       -10.2700    1.1310   -1.3460 ca        1 MOL      0.071995
    131 C45       -11.3280    2.2590    0.9070 ca        1 MOL     -0.406428
    132 C46       -11.5680    0.7190   -0.9170 ca        1 MOL     -0.406428
    133 C47       -12.1050    1.2620    0.2710 ca        1 MOL      0.486413
    134 O20       -13.3050    0.9580    0.7920 oh        1 MOL     -0.548317
    135 H56        -5.7710    3.4790   -1.1190 hn        1 MOL      0.285787
    136 H57        -7.1930    2.2180    0.7720 h1        1 MOL      0.083023
    137 H58        -7.9530    2.2480   -2.1470 hc        1 MOL      0.061549
    138 H59        -8.0580    3.5350   -1.0410 hc        1 MOL      0.061549
    139 H60        -9.3630    3.1330    1.2720 ha        1 MOL      0.087016
    140 H61        -9.9310    0.9120   -2.3460 ha        1 MOL      0.087016
    141 H62       -11.7020    2.7060    1.8130 ha        1 MOL      0.151749
    142 H63       -12.1770    0.0900   -1.5550 ha        1 MOL      0.151749
    143 H64       -13.8080    0.3380    0.2670 ho        1 MOL      0.394672
    144 N13        -6.4820   -0.1710   -1.3850 n         1 MOL     -0.487769
    145 C48        -6.3190   -1.6260   -1.5520 c3        1 MOL      0.207624
    146 C49        -5.3460   -2.2580   -0.4990 c         1 MOL      0.160264
    147 O21        -5.5870   -3.4010   -0.0710 o         1 MOL     -0.520995
    148 C50        -5.7370   -1.8770   -2.9160 c3        1 MOL      0.026655
    149 C51        -5.3610   -3.3030   -3.2940 c3        1 MOL     -0.407996
    150 C52        -4.8690   -3.2160   -4.7400 c         1 MOL      0.760050
    151 O22        -5.6330   -3.0180   -5.7230 o         1 MOL     -0.751343
    152 O23        -3.6490   -3.2010   -4.9130 o         1 MOL     -0.751343
    153 H65        -6.0380    0.3710   -2.1200 hn        1 MOL      0.262010
    154 H66        -7.2860   -2.1400   -1.5040 h1        1 MOL      0.064084
    155 H67        -4.8920   -1.1970   -2.9860 hc        1 MOL      0.023195
    156 H68        -6.5710   -1.5790   -3.5440 hc        1 MOL      0.023195
    157 H69        -6.2160   -3.9640   -3.2300 hc        1 MOL      0.082779
    158 H70        -4.5450   -3.7480   -2.7210 hc        1 MOL      0.082779
    159 N14        -4.5230   -1.4880    0.1560 n         1 MOL      0.009505
    160 C53        -3.6770   -1.9170    1.3240 c3        1 MOL     -0.045073
    161 C54        -4.3340   -1.5040    2.6840 c         1 MOL      0.429204
    162 O24        -4.0330   -1.9840    3.7560 o         1 MOL     -0.568025
    163 C55        -2.3160   -1.3050    1.1710 c3        1 MOL      0.156712
    164 C56        -1.5660   -1.8220   -0.0790 c3        1 MOL     -0.056007
    165 C57        -0.1720   -1.0790   -0.1840 c         1 MOL      0.599115
    166 O25         0.8960   -1.8010   -0.1370 o         1 MOL     -0.705370
    167 O26        -0.1220    0.1510   -0.4400 o         1 MOL     -0.705370
    168 H71        -4.3870   -0.6400   -0.3630 hn        1 MOL      0.140815
    169 H72        -3.5890   -3.0060    1.2760 h1        1 MOL      0.096812
    170 H73        -1.7150   -1.4680    2.0640 hc        1 MOL      0.040926
    171 H74        -2.4380   -0.2320    1.1110 hc        1 MOL      0.040926
    172 H75        -2.0860   -1.6990   -1.0300 hc        1 MOL      0.029718
    173 H76        -1.4260   -2.8860    0.0710 hc        1 MOL      0.029718
    174 N15        -5.1050   -0.4700    2.6720 n         1 MOL     -0.094491
    175 C58        -5.8420    0.1800    3.8660 c3        1 MOL     -0.194892
    176 H77        -6.2950   -0.5990    4.4790 h1        1 MOL      0.079924
    177 H78        -5.1310    0.7480    4.4660 h1        1 MOL      0.079924
    178 H79        -6.6190    0.8470    3.4940 h1        1 MOL      0.079924
    179 H80        -5.1110    0.1230    1.8500 hn        1 MOL     -0.008508
    180 Ca1         2.4990    0.1990   -1.0850 Ca        1 MOL      1.766772
    181 O27         1.4300    2.4710   -2.2530 oh        1 MOL     -0.913549
    182 H81         1.2390    2.0030   -3.0620 ho        1 MOL      0.431145
    183 H82         0.7870    3.1740   -2.2200 ho        1 MOL      0.431145
    184 O28         0.9840   -0.1920   -3.2990 oh        1 MOL     -0.913549
    185 H83         1.6450   -0.5690   -3.8770 ho        1 MOL      0.431145
    186 H84         0.1570   -0.5980   -3.5660 ho        1 MOL      0.431145
@<TRIPOS>BOND
     1    1    2 1   
     2    1    4 1   
     3    1    5 1   
     4    1    6 1   
     5    2    3 2   
     6    2    7 1   
     7    7    8 1   
     8    7   15 1   
     9    8    9 1   
    10    8   11 1   
    11    8   16 1   
    12    9   10 2   
    13    9   19 1   
    14   11   12 1   
    15   11   17 1   
    16   11   18 1   
    17   12   13 1   
    18   12   14 1   
    19   19   20 1   
    20   19   27 1   
    21   20   21 1   
    22   20   23 1   
    23   20   28 1   
    24   21   22 2   
    25   21   38 1   
    26   23   24 1   
    27   23   25 1   
    28   23   29 1   
    29   24   26 1   
    30   24   30 1   
    31   24   31 1   
    32   25   32 1   
    33   25   33 1   
    34   25   34 1   
    35   26   35 1   
    36   26   36 1   
    37   26   37 1   
    38   38   39 1   
    39   38   46 1   
    40   39   40 1   
    41   39   42 1   
    42   39   47 1   
    43   40   41 2   
    44   40   50 1   
    45   42   43 1   
    46   42   48 1   
    47   42   49 1   
    48   43   44 1   
    49   43   45 1   
    50   50   51 1   
    51   50   54 1   
    52   51   52 1   
    53   51   55 1   
    54   51   56 1   
    55   52   53 2   
    56   52   57 1   
    57   57   58 1   
    58   57   65 1   
    59   58   59 1   
    60   58   61 1   
    61   58   66 1   
    62   59   60 2   
    63   59   69 1   
    64   61   62 1   
    65   61   67 1   
    66   61   68 1   
    67   62   63 1   
    68   62   64 1   
    69   69   70 1   
    70   69   73 1   
    71   70   71 1   
    72   70   74 1   
    73   70   75 1   
    74   71   72 2   
    75   71   76 1   
    76   76   77 1   
    77   76   85 1   
    78   77   78 1   
    79   77   80 1   
    80   77   86 1   
    81   78   79 2   
    82   78   93 1   
    83   80   81 1   
    84   80   87 1   
    85   80   88 1   
    86   81   82 1   
    87   81   89 1   
    88   81   90 1   
    89   82   83 1   
    90   82   84 2   
    91   83   91 1   
    92   83   92 1   
    93   93   94 1   
    94   93  100 1   
    95   94   95 1   
    96   94   97 1   
    97   94  101 1   
    98   95   96 2   
    99   95  109 1   
   100   97   98 1   
   101   97   99 1   
   102   97  102 1   
   103   98  103 1   
   104   98  104 1   
   105   98  105 1   
   106   99  106 1   
   107   99  107 1   
   108   99  108 1   
   109  109  110 1   
   110  109  117 1   
   111  110  111 1   
   112  110  113 1   
   113  110  118 1   
   114  111  112 2   
   115  111  123 1   
   116  113  114 1   
   117  113  119 1   
   118  113  120 1   
   119  114  115 1   
   120  114  116 2   
   121  115  121 1   
   122  115  122 1   
   123  123  124 1   
   124  123  135 1   
   125  124  125 1   
   126  124  127 1   
   127  124  136 1   
   128  125  126 2   
   129  125  144 1   
   130  127  128 1   
   131  127  137 1   
   132  127  138 1   
   133  128  129 ar  
   134  128  130 ar  
   135  129  131 ar  
   136  129  139 1   
   137  130  132 ar  
   138  130  140 1   
   139  131  133 ar  
   140  131  141 1   
   141  132  133 ar  
   142  132  142 1   
   143  133  134 1   
   144  134  143 1   
   145  144  145 1   
   146  144  153 1   
   147  145  146 1   
   148  145  148 1   
   149  145  154 1   
   150  146  147 2   
   151  146  159 1   
   152  148  149 1   
   153  148  155 1   
   154  148  156 1   
   155  149  150 1   
   156  149  157 1   
   157  149  158 1   
   158  150  151 1   
   159  150  152 1   
   160  159  160 1   
   161  159  168 1   
   162  160  161 1   
   163  160  163 1   
   164  160  169 1   
   165  161  162 2   
   166  161  174 1   
   167  163  164 1   
   168  163  170 1   
   169  163  171 1   
   170  164  165 1   
   171  164  172 1   
   172  164  173 1   
   173  165  166 1   
   174  165  167 1   
   175  174  175 1   
   176  174  179 1   
   177  175  176 1   
   178  175  177 1   
   179  175  178 1   
   180  181  182 1   
   181  181  183 1   
   182  184  185 1   
   183  184  186 1   
@<TRIPOS>SUBSTRUCTURE
     1 MOL         1 TEMP              0 ****  ****    0 ROOT
