@<TRIPOS>MOLECULE
MOL
  175   173     1     0     0
SMALL
resp


@<TRIPOS>ATOM
      1 C1         -0.0560    3.8710    5.5460 c3        1 MOL     -0.339093
      2 C2         -0.5710    3.9510    4.1210 c         1 MOL      0.707428
      3 O1          0.2100    3.9040    3.1380 o         1 MOL     -0.600727
      4 H1          0.9890    4.1790    5.5720 hc        1 MOL      0.083548
      5 H2         -0.6450    4.5310    6.1830 hc        1 MOL      0.083548
      6 H3         -0.1420    2.8460    5.9080 hc        1 MOL      0.083548
      7 N1         -1.8630    3.8990    3.9150 n         1 MOL     -0.639606
      8 C3         -2.3500    3.3920    2.6400 c3        1 MOL      0.154730
      9 C4         -2.5710    4.5400    1.5750 c         1 MOL      0.637531
     10 O2         -3.3190    5.4910    1.8860 o         1 MOL     -0.606082
     11 C5         -3.6690    2.7590    2.8960 c3        1 MOL     -0.480525
     12 C6         -4.2580    2.0090    1.7760 c         1 MOL      0.921689
     13 O3         -3.6060    1.8690    0.7500 o         1 MOL     -0.736398
     14 O4         -5.3910    1.4150    1.9540 o         1 MOL     -0.736398
     15 H4         -2.5150    3.8760    4.6840 hn        1 MOL      0.343370
     16 H5         -1.6430    2.6790    2.2190 h1        1 MOL      0.176276
     17 H6         -4.4450    3.4430    3.2760 hc        1 MOL      0.101046
     18 H7         -3.5460    2.0420    3.7010 hc        1 MOL      0.101046
     19 N2         -2.1350    4.3660    0.3500 n         1 MOL     -0.588455
     20 C7         -2.2650    5.4440   -0.7300 c3        1 MOL      0.216584
     21 C8         -3.3010    5.0360   -1.8340 c         1 MOL      0.539411
     22 O5         -3.6970    5.8710   -2.6120 o         1 MOL     -0.591630
     23 C9         -0.8330    5.8210   -1.2980 c3        1 MOL     -0.165400
     24 H8         -1.6970    3.4880    0.1330 hn        1 MOL      0.314933
     25 H9         -2.6830    6.3370   -0.2740 h1        1 MOL      0.051779
     26 H10        -0.3250    6.3390   -0.4930 hc        1 MOL      0.040797
     27 H11        -0.2650    4.9860   -1.7120 hc        1 MOL      0.040797
     28 H12        -0.8730    6.6080   -2.0450 hc        1 MOL      0.040797
     29 N3         -3.8650    3.8260   -1.8050 n         1 MOL     -0.468856
     30 C10        -4.6930    3.2950   -2.9580 c3        1 MOL      0.181729
     31 C11        -6.0020    2.6850   -2.4650 c         1 MOL      0.380584
     32 O6         -6.9830    2.6550   -3.2190 o         1 MOL     -0.554061
     33 C12        -3.7110    2.3550   -3.7930 c3        1 MOL     -0.211366
     34 C13        -2.9700    1.3880   -2.9050 c         1 MOL      0.650138
     35 O7         -1.7060    1.2540   -2.8960 o         1 MOL     -0.679993
     36 O8         -3.6500    0.8030   -2.0070 o         1 MOL     -0.679993
     37 H13        -3.6730    3.1230   -1.1010 hn        1 MOL      0.343347
     38 H14        -4.9430    4.1080   -3.6330 h1        1 MOL      0.071359
     39 H15        -3.0050    3.0010   -4.3230 hc        1 MOL      0.044106
     40 H16        -4.2650    1.8480   -4.5710 hc        1 MOL      0.044106
     41 N4         -6.0450    2.2180   -1.2080 n         1 MOL     -0.106794
     42 C14        -7.2160    1.4420   -0.8070 c3        1 MOL     -0.377595
     43 C15        -7.1600   -0.0210   -1.1630 c         1 MOL      0.614202
     44 O9         -8.1850   -0.7100   -1.0230 o         1 MOL     -0.637987
     45 H17        -5.1580    2.0650   -0.7670 hn        1 MOL     -0.014695
     46 H18        -8.1390    1.9210   -1.1330 h1        1 MOL      0.179565
     47 H19        -7.0550    1.4710    0.2740 h1        1 MOL      0.179565
     48 N5         -6.0780   -0.6430   -1.7770 n         1 MOL     -0.330337
     49 C16        -6.1040   -2.0640   -2.1760 c3        1 MOL     -0.005557
     50 C17        -6.0850   -3.0940   -1.0350 c         1 MOL      0.424815
     51 O10        -5.8000   -4.2940   -1.2940 o         1 MOL     -0.535185
     52 C18        -4.9780   -2.2780   -3.1490 c3        1 MOL     -0.177624
     53 C19        -3.5260   -2.0550   -2.6980 c         1 MOL      0.439642
     54 N6         -2.6710   -1.7310   -3.6730 n         1 MOL     -0.652413
     55 O11        -3.1890   -2.0900   -1.4760 o         1 MOL     -0.129134
     56 H20        -5.3410    0.0260   -1.9740 hn        1 MOL      0.267008
     57 H21        -7.0810   -2.1940   -2.6380 h1        1 MOL      0.110930
     58 H22        -5.2620   -1.7720   -4.0670 hc        1 MOL      0.059552
     59 H23        -5.0160   -3.3250   -3.4620 hc        1 MOL      0.059552
     60 H24        -3.0140   -1.3600   -4.5530 hn        1 MOL      0.342276
     61 H25        -1.6950   -1.6160   -3.4540 hn        1 MOL      0.342276
     62 N7         -6.3410   -2.6930    0.1980 n         1 MOL     -0.226467
     63 C20        -6.2170   -3.5140    1.3750 c3        1 MOL     -0.483663
     64 C21        -4.8380   -4.1310    1.7570 c         1 MOL      0.504648
     65 O12        -4.6610   -4.8640    2.7670 o         1 MOL     -0.593303
     66 H26        -6.5700   -1.7420    0.4460 hn        1 MOL      0.329162
     67 H27        -6.7060   -4.3990    0.9890 h1        1 MOL      0.202713
     68 H28        -6.6510   -3.0560    2.2690 h1        1 MOL      0.202713
     69 N8         -3.8270   -3.9700    0.9150 n         1 MOL     -0.023504
     70 C22        -2.3920   -4.4310    1.1530 c3        1 MOL     -0.052563
     71 C23        -1.2680   -3.4710    1.3600 c         1 MOL      0.437160
     72 O13        -1.3660   -2.3490    0.8640 o         1 MOL     -0.630945
     73 C24        -2.0170   -5.5640    0.1380 c3        1 MOL      0.621901
     74 C25        -2.8290   -6.8550    0.2380 c3        1 MOL     -0.321289
     75 O14        -2.1630   -5.0710   -1.1410 oh        1 MOL     -0.590760
     76 H29        -4.0230   -3.4400    0.0770 hn        1 MOL     -0.019947
     77 H30        -2.4460   -4.9410    2.1140 h1        1 MOL      0.039555
     78 H31        -0.9900   -5.8830    0.3480 h1        1 MOL     -0.086806
     79 H32        -2.0380   -4.1200   -1.1030 ho        1 MOL      0.270673
     80 H33        -3.9110   -6.7410    0.1710 hc        1 MOL      0.059637
     81 H34        -2.3560   -7.5490   -0.4570 hc        1 MOL      0.059637
     82 H35        -2.6360   -7.1070    1.2860 hc        1 MOL      0.059637
     83 N9         -0.1690   -3.8590    2.0410 n         1 MOL     -0.465950
     84 C26         0.9730   -2.9830    2.1800 c3        1 MOL      0.340564
     85 C27         1.7880   -3.1030    0.9160 c         1 MOL      0.369021
     86 O15         2.4240   -4.1730    0.6420 o         1 MOL     -0.597144
     87 C28         1.9080   -3.5080    3.2660 c3        1 MOL      0.038916
     88 C29         1.3440   -3.6020    4.6700 c3        1 MOL     -0.261511
     89 C30         3.2870   -2.8150    3.4360 c3        1 MOL     -0.107739
     90 C31         1.0560   -2.2360    5.3130 c3        1 MOL     -0.177152
     91 H36        -0.0540   -4.8550    2.2070 hn        1 MOL      0.258571
     92 H37         0.7290   -1.9380    2.3200 h1        1 MOL      0.053643
     93 H38         2.0430   -4.5550    2.9960 hc        1 MOL     -0.009036
     94 H39         2.0320   -4.1550    5.3160 hc        1 MOL      0.085696
     95 H40         0.3570   -4.0650    4.7330 hc        1 MOL      0.085696
     96 H41         3.8820   -2.9150    2.5300 hc        1 MOL      0.027958
     97 H42         3.1440   -1.7350    3.5290 hc        1 MOL      0.027958
     98 H43         3.8320   -3.1850    4.3000 hc        1 MOL      0.027958
     99 H44         1.9890   -1.7970    5.6610 hc        1 MOL      0.048648
    100 H45         0.4680   -1.5410    4.7170 hc        1 MOL      0.048648
    101 H46         0.4690   -2.4080    6.2210 hc        1 MOL      0.048648
    102 N10         1.9290   -2.0770    0.0900 n         1 MOL     -0.042789
    103 C32         2.6770   -1.9120   -1.1620 c3        1 MOL     -0.017215
    104 C33         4.0610   -1.3630   -0.7950 c         1 MOL      0.520393
    105 O16         4.3080   -0.6990    0.2420 o         1 MOL     -0.401976
    106 C34         1.9400   -1.0960   -2.2410 c3        1 MOL     -0.195399
    107 C35         0.5120   -1.6710   -2.5300 c         1 MOL      0.649033
    108 O17        -0.3010   -1.2190   -1.6850 o         1 MOL     -0.662019
    109 O18         0.1540   -2.3140   -3.5610 o         1 MOL     -0.662019
    110 H47         1.5920   -1.1910    0.4470 hn        1 MOL      0.076443
    111 H48         2.7550   -2.9290   -1.5460 h1        1 MOL      0.066301
    112 H49         2.5450   -1.1400   -3.1410 hc        1 MOL      0.055456
    113 H50         1.8570   -0.0700   -1.8760 hc        1 MOL      0.055456
    114 N11         5.0290   -1.6480   -1.7070 n         1 MOL     -0.630931
    115 C36         6.4690   -1.2580   -1.6240 c3        1 MOL      0.280109
    116 C37         6.7880    0.1720   -1.0990 c         1 MOL      0.495460
    117 O19         7.4300    0.1510   -0.0730 o         1 MOL     -0.512772
    118 C38         7.0300   -1.4840   -2.9870 c3        1 MOL     -0.170475
    119 C39         8.4870   -1.3790   -2.9560 ca        1 MOL      0.125695
    120 C40         9.0780   -2.3000   -2.1380 ca        1 MOL     -0.227183
    121 C41         9.2340   -0.3700   -3.6320 ca        1 MOL     -0.227183
    122 C42        10.4270   -2.2450   -1.8570 ca        1 MOL     -0.055303
    123 C43        10.6010   -0.3560   -3.4120 ca        1 MOL     -0.055303
    124 C44        11.2280   -1.2300   -2.4700 ca        1 MOL     -0.165618
    125 H51         4.7510   -2.0090   -2.6130 hn        1 MOL      0.321328
    126 H52         6.9240   -1.9600   -0.9340 h1        1 MOL      0.055049
    127 H53         6.6360   -0.7410   -3.6700 hc        1 MOL      0.050022
    128 H54         6.8150   -2.5090   -3.3080 hc        1 MOL      0.050022
    129 H55         8.5100   -3.0340   -1.5930 ha        1 MOL      0.141924
    130 H56         8.7780    0.2760   -4.3810 ha        1 MOL      0.141924
    131 H57        10.7690   -3.0510   -1.2300 ha        1 MOL      0.095982
    132 H58        11.1720    0.2490   -4.1010 ha        1 MOL      0.095982
    133 H59        12.3000   -1.2160   -2.2950 ha        1 MOL      0.110410
    134 N12         6.1140    1.2990   -1.5610 n         1 MOL     -0.247175
    135 C45         6.4060    2.5600   -0.9010 c3        1 MOL     -0.003544
    136 C46         5.9060    2.7800    0.5060 c         1 MOL      0.329619
    137 O20         6.5280    3.5270    1.3040 o         1 MOL     -0.516339
    138 C47         5.7000    3.5940   -1.8090 c3        1 MOL     -0.176643
    139 C48         4.4980    2.9310   -2.4820 c3        1 MOL      0.019754
    140 C49         5.0050    1.4460   -2.5540 c3        1 MOL      0.027643
    141 H60         7.4960    2.6160   -0.9650 h1        1 MOL      0.085141
    142 H61         5.3690    4.4630   -1.2370 hc        1 MOL      0.068091
    143 H62         6.4320    3.9340   -2.5430 hc        1 MOL      0.068091
    144 H63         3.6530    2.9070   -1.8020 hc        1 MOL      0.035325
    145 H64         4.3020    3.3330   -3.4780 hc        1 MOL      0.035325
    146 H65         4.1600    0.7750   -2.3850 h1        1 MOL      0.021782
    147 H66         5.3710    1.3070   -3.5760 h1        1 MOL      0.021782
    148 N13         4.7970    2.1360    0.8320 n         1 MOL      0.020454
    149 C50         4.1120    2.2010    2.1260 c3        1 MOL     -0.326275
    150 C51         4.9730    1.5310    3.1330 c         1 MOL      0.538821
    151 O21         5.2610    2.0900    4.2040 o         1 MOL     -0.559961
    152 C52         2.7340    1.5790    1.9660 c3        1 MOL      0.147255
    153 C53         1.8200    2.0460    0.8310 c3        1 MOL     -0.002177
    154 C54         0.4220    1.3610    0.7610 c         1 MOL      0.394619
    155 O22        -0.4450    1.8970    0.0870 o         1 MOL     -0.610137
    156 O23         0.1540    0.3090    1.3250 o         1 MOL     -0.610137
    157 H67         4.4340    1.4350    0.2030 hn        1 MOL      0.136178
    158 H68         4.0090    3.2620    2.3540 h1        1 MOL      0.144634
    159 H69         2.3200    1.7650    2.9620 hc        1 MOL     -0.018335
    160 H70         2.8600    0.4980    2.0300 hc        1 MOL     -0.018335
    161 H71         2.2570    1.8590   -0.1550 hc        1 MOL      0.040102
    162 H72         1.7520    3.1310    0.8430 hc        1 MOL      0.040102
    163 N14         5.4710    0.2830    2.9080 n         1 MOL     -0.111008
    164 C55         6.5110   -0.4830    3.7380 c3        1 MOL     -0.353649
    165 H73         7.4850   -0.0070    3.6290 h1        1 MOL      0.131704
    166 H74         6.2170   -0.4740    4.7870 h1        1 MOL      0.131704
    167 H75         6.5700   -1.5140    3.3850 h1        1 MOL      0.131704
    168 H76         5.3600    0.0310    1.9380 hn        1 MOL      0.127163
    169 Ca1        -1.9720   -0.1230   -0.1850 Ca        1 MOL      1.616203
    170 O24        -2.1840    0.2580    2.8130 oh        1 MOL     -0.810732
    171 H77        -1.2960    0.2900    2.4760 ho        1 MOL      0.392973
    172 H78        -2.0840    0.3280    3.7590 ho        1 MOL      0.392973
    173 O25        -4.3390   -0.8830    1.1250 oh        1 MOL     -0.810732
    174 H79        -3.8980   -1.0840    1.9570 ho        1 MOL      0.392973
    175 H80        -4.7040   -0.0070    1.2520 ho        1 MOL      0.392973
@<TRIPOS>BOND
     1    1    2 1   
     2    1    4 1   
     3    1    5 1   
     4    1    6 1   
     5    2    3 2   
     6    2    7 1   
     7    7    8 1   
     8    7   15 1   
     9    8    9 1   
    10    8   11 1   
    11    8   16 1   
    12    9   10 2   
    13    9   19 1   
    14   11   12 1   
    15   11   17 1   
    16   11   18 1   
    17   12   13 1   
    18   12   14 1   
    19   19   20 1   
    20   19   24 1   
    21   20   21 1   
    22   20   23 1   
    23   20   25 1   
    24   21   22 2   
    25   21   29 1   
    26   23   26 1   
    27   23   27 1   
    28   23   28 1   
    29   29   30 1   
    30   29   37 1   
    31   30   31 1   
    32   30   33 1   
    33   30   38 1   
    34   31   32 2   
    35   31   41 1   
    36   33   34 1   
    37   33   39 1   
    38   33   40 1   
    39   34   35 1   
    40   34   36 1   
    41   41   42 1   
    42   41   45 1   
    43   42   43 1   
    44   42   46 1   
    45   42   47 1   
    46   43   44 2   
    47   43   48 1   
    48   48   49 1   
    49   48   56 1   
    50   49   50 1   
    51   49   52 1   
    52   49   57 1   
    53   50   51 2   
    54   50   62 1   
    55   52   53 1   
    56   52   58 1   
    57   52   59 1   
    58   53   54 1   
    59   53   55 2   
    60   54   60 1   
    61   54   61 1   
    62   62   63 1   
    63   62   66 1   
    64   63   64 1   
    65   63   67 1   
    66   63   68 1   
    67   64   65 2   
    68   64   69 1   
    69   69   70 1   
    70   69   76 1   
    71   70   71 1   
    72   70   73 1   
    73   70   77 1   
    74   71   72 2   
    75   71   83 1   
    76   73   74 1   
    77   73   75 1   
    78   73   78 1   
    79   74   80 1   
    80   74   81 1   
    81   74   82 1   
    82   75   79 1   
    83   83   84 1   
    84   83   91 1   
    85   84   85 1   
    86   84   87 1   
    87   84   92 1   
    88   85   86 2   
    89   85  102 1   
    90   87   88 1   
    91   87   89 1   
    92   87   93 1   
    93   88   90 1   
    94   88   94 1   
    95   88   95 1   
    96   89   96 1   
    97   89   97 1   
    98   89   98 1   
    99   90   99 1   
   100   90  100 1   
   101   90  101 1   
   102  102  103 1   
   103  102  110 1   
   104  103  104 1   
   105  103  106 1   
   106  103  111 1   
   107  104  105 2   
   108  104  114 1   
   109  106  107 1   
   110  106  112 1   
   111  106  113 1   
   112  107  108 1   
   113  107  109 1   
   114  114  115 1   
   115  114  125 1   
   116  115  116 1   
   117  115  118 1   
   118  115  126 1   
   119  116  117 2   
   120  116  134 1   
   121  118  119 1   
   122  118  127 1   
   123  118  128 1   
   124  119  120 ar  
   125  119  121 ar  
   126  120  122 ar  
   127  120  129 1   
   128  121  123 ar  
   129  121  130 1   
   130  122  124 ar  
   131  122  131 1   
   132  123  124 ar  
   133  123  132 1   
   134  124  133 1   
   135  134  135 1   
   136  134  140 1   
   137  135  136 1   
   138  135  138 1   
   139  135  141 1   
   140  136  137 2   
   141  136  148 1   
   142  138  139 1   
   143  138  142 1   
   144  138  143 1   
   145  139  140 1   
   146  139  144 1   
   147  139  145 1   
   148  140  146 1   
   149  140  147 1   
   150  148  149 1   
   151  148  157 1   
   152  149  150 1   
   153  149  152 1   
   154  149  158 1   
   155  150  151 2   
   156  150  163 1   
   157  152  153 1   
   158  152  159 1   
   159  152  160 1   
   160  153  154 1   
   161  153  161 1   
   162  153  162 1   
   163  154  155 1   
   164  154  156 1   
   165  163  164 1   
   166  163  168 1   
   167  164  165 1   
   168  164  166 1   
   169  164  167 1   
   170  170  171 1   
   171  170  172 1   
   172  173  174 1   
   173  173  175 1   
@<TRIPOS>SUBSTRUCTURE
     1 MOL         1 TEMP              0 ****  ****    0 ROOT
