@<TRIPOS>MOLECULE
MOL
  175   173     1     0     0
SMALL
resp


@<TRIPOS>ATOM
      1 C1          0.3440    3.6810    5.7370 c3        1 MOL     -0.458555
      2 C2         -0.2060    3.8470    4.2860 c         1 MOL      0.725560
      3 O1          0.5750    4.1640    3.4410 o         1 MOL     -0.531427
      4 H1         -0.4540    3.8790    6.4530 hc        1 MOL      0.114745
      5 H2          0.7080    2.6620    5.8740 hc        1 MOL      0.114745
      6 H3          1.1600    4.3840    5.9000 hc        1 MOL      0.114745
      7 N1         -1.5330    3.6690    3.9970 n         1 MOL     -0.616733
      8 C3         -2.0790    3.3870    2.6620 c3        1 MOL      0.029028
      9 C4         -2.0360    4.6010    1.7310 c         1 MOL      0.696837
     10 O2         -2.4610    5.7080    2.1930 o         1 MOL     -0.597982
     11 C5         -3.4750    2.9070    2.8560 c3        1 MOL     -0.363438
     12 C6         -4.2120    2.5010    1.6000 c         1 MOL      0.650385
     13 O3         -5.4130    2.7530    1.5760 o         1 MOL     -0.622276
     14 O4         -3.5980    2.0180    0.5890 o         1 MOL     -0.622276
     15 H4         -2.1850    3.5200    4.7570 hn        1 MOL      0.315096
     16 H5         -1.3760    2.6390    2.2840 h1        1 MOL      0.048670
     17 H6         -4.0190    3.7260    3.3160 hc        1 MOL      0.096380
     18 H7         -3.3810    2.0510    3.5200 hc        1 MOL      0.096380
     19 N2         -1.6090    4.4330    0.4780 n         1 MOL     -0.520106
     20 C7         -1.6700    5.4600   -0.6000 c3        1 MOL      0.204461
     21 C8         -2.5960    5.0630   -1.8040 c         1 MOL      0.524245
     22 O5         -2.6830    5.8290   -2.7790 o         1 MOL     -0.575579
     23 C9         -0.2820    5.7390   -1.1370 c3        1 MOL     -0.184538
     24 H8         -1.3990    3.4660    0.2740 hn        1 MOL      0.333151
     25 H9         -2.1330    6.3580   -0.1750 h1        1 MOL      0.019393
     26 H10         0.2890    4.8330   -1.3320 hc        1 MOL      0.045550
     27 H11        -0.2350    6.3430   -2.0490 hc        1 MOL      0.045550
     28 H12         0.2580    6.2310   -0.3280 hc        1 MOL      0.045550
     29 N3         -3.3420    3.9540   -1.7670 n         1 MOL     -0.452129
     30 C10        -4.0440    3.4370   -2.9470 c3        1 MOL      0.097349
     31 C11        -5.4620    2.8380   -2.7340 c         1 MOL      0.324040
     32 O6         -6.2890    2.6810   -3.6610 o         1 MOL     -0.543401
     33 C12        -3.1830    2.3990   -3.7260 c3        1 MOL     -0.148282
     34 C13        -2.7300    1.3140   -2.7610 c         1 MOL      0.730176
     35 O7         -3.6180    0.6940   -2.1150 o         1 MOL     -0.707169
     36 O8         -1.5370    1.0290   -2.5490 o         1 MOL     -0.707169
     37 H13        -3.3380    3.3970   -0.9220 hn        1 MOL      0.276295
     38 H14        -4.1080    4.2170   -3.7020 h1        1 MOL      0.079317
     39 H15        -2.2740    2.8420   -4.1400 hc        1 MOL      0.043681
     40 H16        -3.7430    1.8660   -4.4880 hc        1 MOL      0.043681
     41 N4         -5.8170    2.5170   -1.4870 n         1 MOL     -0.054188
     42 C14        -7.0740    1.8900   -1.1330 c3        1 MOL     -0.304134
     43 C15        -7.1830    0.4160   -1.4790 c         1 MOL      0.740135
     44 O9         -8.2810   -0.0710   -1.5400 o         1 MOL     -0.653638
     45 H17        -5.1700    2.7650   -0.7650 hn        1 MOL      0.124384
     46 H18        -7.9110    2.4010   -1.6090 h1        1 MOL      0.120875
     47 H19        -7.1890    1.9940   -0.0520 h1        1 MOL      0.120875
     48 N5         -6.1200   -0.3650   -1.7950 n         1 MOL     -0.484211
     49 C16        -6.0960   -1.7750   -2.2080 c3        1 MOL      0.334044
     50 C17        -6.1790   -2.8520   -1.1000 c         1 MOL      0.256885
     51 O10        -6.2210   -4.0430   -1.3580 o         1 MOL     -0.475520
     52 C18        -4.9590   -1.9450   -3.2380 c3        1 MOL     -0.541101
     53 C19        -3.5590   -2.1070   -2.6850 c         1 MOL      0.812982
     54 N6         -2.5850   -2.4600   -3.5090 n         1 MOL     -0.635733
     55 O11        -3.2700   -1.9340   -1.5310 o         1 MOL     -0.742878
     56 H20        -5.2560    0.1060   -2.0150 hn        1 MOL      0.218493
     57 H21        -6.9800   -1.9140   -2.8260 h1        1 MOL      0.062818
     58 H22        -4.8660   -0.9840   -3.7450 hc        1 MOL      0.139611
     59 H23        -5.0790   -2.8340   -3.8490 hc        1 MOL      0.139611
     60 H24        -2.8310   -2.5380   -4.4880 hn        1 MOL      0.294389
     61 H25        -1.6080   -2.3830   -3.2740 hn        1 MOL      0.294389
     62 N7         -6.2430   -2.4500    0.2160 n         1 MOL     -0.180021
     63 C20        -6.2570   -3.3250    1.4200 c3        1 MOL     -0.213016
     64 C21        -5.0500   -4.2180    1.6080 c         1 MOL      0.522993
     65 O12        -5.1550   -5.1020    2.4190 o         1 MOL     -0.575462
     66 H26        -6.3000   -1.4630    0.4430 hn        1 MOL      0.175835
     67 H27        -7.1910   -3.8710    1.3610 h1        1 MOL      0.106584
     68 H28        -6.3340   -2.6750    2.2910 h1        1 MOL      0.106584
     69 N8         -3.9360   -3.9400    0.9230 n         1 MOL     -0.328889
     70 C22        -2.5650   -4.5190    1.1760 c3        1 MOL     -0.007813
     71 C23        -1.5650   -3.4300    1.3600 c         1 MOL      0.368843
     72 O13        -1.6440   -2.3360    0.8930 o         1 MOL     -0.392026
     73 C24        -2.1270   -5.2910   -0.1230 c3        1 MOL      0.362024
     74 C25        -2.9480   -6.5680   -0.4260 c3        1 MOL     -0.368130
     75 O14        -2.3330   -4.4960   -1.3090 oh        1 MOL     -0.530437
     76 H29        -4.0630   -3.3080    0.1460 hn        1 MOL      0.389720
     77 H30        -2.5810   -5.1760    2.0520 h1        1 MOL      0.074164
     78 H31        -1.0720   -5.5690   -0.0640 h1        1 MOL     -0.011358
     79 H32        -1.8460   -3.6990   -1.1080 ho        1 MOL      0.304037
     80 H33        -3.9510   -6.1680   -0.5670 hc        1 MOL      0.090276
     81 H34        -2.5900   -7.0840   -1.3190 hc        1 MOL      0.090276
     82 H35        -2.8670   -7.2330    0.4390 hc        1 MOL      0.090276
     83 N9         -0.5360   -3.7410    2.0680 n         1 MOL     -0.332948
     84 C26         0.7170   -2.9310    2.1010 c3        1 MOL     -0.032656
     85 C27         1.5300   -3.2940    0.8760 c         1 MOL      0.430612
     86 O15         1.9540   -4.4810    0.6710 o         1 MOL     -0.562054
     87 C28         1.4710   -3.1710    3.4360 c3        1 MOL      0.000265
     88 C29         0.7350   -2.4920    4.6230 c3        1 MOL      0.026922
     89 C30         2.9460   -2.7510    3.4630 c3        1 MOL     -0.054688
     90 C31         1.1890   -3.0090    5.9790 c3        1 MOL     -0.146217
     91 H36        -0.5340   -4.7230    2.3230 hn        1 MOL      0.222354
     92 H37         0.3590   -1.9090    2.0470 h1        1 MOL      0.027352
     93 H38         1.4440   -4.2450    3.6140 hc        1 MOL      0.050064
     94 H39        -0.3470   -2.6010    4.5170 hc        1 MOL      0.010812
     95 H40         0.9870   -1.4330    4.6440 hc        1 MOL      0.010812
     96 H41         3.3610   -3.1930    4.3700 hc        1 MOL      0.009559
     97 H42         3.5200   -3.1380    2.6260 hc        1 MOL      0.009559
     98 H43         3.0760   -1.6670    3.4000 hc        1 MOL      0.009559
     99 H44         2.0280   -2.3860    6.2770 hc        1 MOL      0.030622
    100 H45         0.4600   -2.7950    6.7660 hc        1 MOL      0.030622
    101 H46         1.4390   -4.0690    5.9920 hc        1 MOL      0.030622
    102 N10         1.8120   -2.2160    0.1060 n         1 MOL     -0.145306
    103 C32         2.6560   -2.2350   -1.0380 c3        1 MOL     -0.004661
    104 C33         4.0360   -1.7150   -0.7180 c         1 MOL      0.494743
    105 O16         4.3340   -1.2680    0.3890 o         1 MOL     -0.421318
    106 C34         2.0350   -1.3850   -2.1540 c3        1 MOL     -0.367579
    107 C35         0.5720   -1.6040   -2.3720 c         1 MOL      0.788166
    108 O17        -0.2420   -1.1880   -1.5500 o         1 MOL     -0.673486
    109 O18         0.1970   -2.0970   -3.4750 o         1 MOL     -0.673486
    110 H47         1.3590   -1.3300    0.2990 hn        1 MOL      0.241848
    111 H48         2.6750   -3.2630   -1.4180 h1        1 MOL      0.071896
    112 H49         2.6510   -1.4560   -3.0500 hc        1 MOL      0.090565
    113 H50         2.0700   -0.3360   -1.8750 hc        1 MOL      0.090565
    114 N11         4.9040   -2.0330   -1.6260 n         1 MOL     -0.518298
    115 C36         6.2670   -1.7110   -1.4990 c3        1 MOL      0.102361
    116 C37         6.6150   -0.2910   -0.9370 c         1 MOL      0.404291
    117 O19         7.2800   -0.1880    0.0920 o         1 MOL     -0.482910
    118 C38         7.0450   -1.9950   -2.7180 c3        1 MOL      0.006885
    119 C39         8.4410   -1.3750   -2.8550 ca        1 MOL     -0.048328
    120 C40         9.3970   -1.6630   -1.8520 ca        1 MOL     -0.075178
    121 C41         8.7960   -0.4530   -3.8560 ca        1 MOL     -0.075178
    122 C42        10.6740   -1.0910   -1.9160 ca        1 MOL     -0.181733
    123 C43        10.1000    0.1160   -3.8690 ca        1 MOL     -0.181733
    124 C44        10.9720   -0.1490   -2.8770 ca        1 MOL     -0.023213
    125 H51         4.5980   -2.4340   -2.5020 hn        1 MOL      0.335103
    126 H52         6.7140   -2.4130   -0.7860 h1        1 MOL      0.085828
    127 H53         6.5140   -1.7900   -3.6460 hc        1 MOL      0.016527
    128 H54         7.2430   -3.0700   -2.7980 hc        1 MOL      0.016527
    129 H55         9.0760   -2.3230   -1.0610 ha        1 MOL      0.100561
    130 H56         8.0790   -0.0800   -4.5710 ha        1 MOL      0.100561
    131 H57        11.4030   -1.2670   -1.1350 ha        1 MOL      0.118202
    132 H58        10.3300    0.9140   -4.5630 ha        1 MOL      0.118202
    133 H59        11.9510    0.2840   -2.7990 ha        1 MOL      0.082925
    134 N12         5.9980    0.8040   -1.4590 n         1 MOL     -0.089665
    135 C45         5.9810    2.1900   -0.9230 c3        1 MOL     -0.026149
    136 C46         5.5470    2.2850    0.5290 c         1 MOL      0.258607
    137 O20         6.0460    3.0960    1.2910 o         1 MOL     -0.510070
    138 C47         5.1090    3.0620   -1.8330 c3        1 MOL      0.100802
    139 C48         5.1690    2.3740   -3.1630 c3        1 MOL     -0.053661
    140 C49         5.2610    0.9040   -2.7150 c3        1 MOL      0.017515
    141 H60         6.9490    2.6910   -1.0010 h1        1 MOL      0.065927
    142 H61         4.0790    3.2250   -1.5030 hc        1 MOL      0.008103
    143 H62         5.4940    4.0670   -1.9750 hc        1 MOL      0.008103
    144 H63         4.3080    2.6040   -3.7960 hc        1 MOL      0.030680
    145 H64         6.1210    2.4670   -3.6700 hc        1 MOL      0.030680
    146 H65         4.2820    0.4470   -2.5640 h1        1 MOL      0.000406
    147 H66         5.8170    0.3940   -3.5110 h1        1 MOL      0.000406
    148 N13         4.4800    1.6610    0.9940 n         1 MOL     -0.087740
    149 C50         3.8440    1.8500    2.3040 c3        1 MOL     -0.004280
    150 C51         4.5190    1.0640    3.4150 c         1 MOL      0.462804
    151 O21         4.5490    1.4950    4.5660 o         1 MOL     -0.559901
    152 C52         2.3670    1.4630    2.1460 c3        1 MOL      0.031930
    153 C53         1.7150    2.0660    0.9120 c3        1 MOL     -0.125622
    154 C54         0.3310    1.4600    0.6640 c         1 MOL      0.616410
    155 O22        -0.0550    0.4320    1.3340 o         1 MOL     -0.673570
    156 O23        -0.4330    2.0420   -0.1580 o         1 MOL     -0.673570
    157 H67         3.9480    0.9960    0.4520 hn        1 MOL      0.160737
    158 H68         3.8050    2.8710    2.6630 h1        1 MOL      0.077035
    159 H69         1.7900    1.8180    3.0000 hc        1 MOL      0.004729
    160 H70         2.3110    0.3830    2.0610 hc        1 MOL      0.004729
    161 H71         2.2560    1.8070   -0.0020 hc        1 MOL      0.052366
    162 H72         1.6550    3.1330    1.1300 hc        1 MOL      0.052366
    163 N14         5.0880   -0.0870    2.9740 n         1 MOL     -0.139127
    164 C55         6.1820   -0.8600    3.6460 c3        1 MOL     -0.063215
    165 H73         6.8360   -1.2940    2.8890 h1        1 MOL      0.042999
    166 H74         6.7600   -0.1920    4.2850 h1        1 MOL      0.042999
    167 H75         5.7480   -1.6570    4.2490 h1        1 MOL      0.042999
    168 H76         4.6850   -0.4600    2.1210 hn        1 MOL      0.124928
    169 Ca1        -2.1030   -0.0020   -0.2060 Ca        1 MOL      1.646639
    170 O24        -4.1210   -0.7920    1.5050 oh        1 MOL     -0.860244
    171 H77        -3.4920   -0.6870    2.2260 ho        1 MOL      0.417786
    172 H78        -4.9720   -0.6690    1.9210 ho        1 MOL      0.417786
    173 O25        -2.0440   -0.3070    3.0670 oh        1 MOL     -0.860244
    174 H79        -2.0570    0.1380    3.9110 ho        1 MOL      0.417786
    175 H80        -1.2040   -0.0770    2.6790 ho        1 MOL      0.417786
@<TRIPOS>BOND
     1    1    2 1   
     2    1    4 1   
     3    1    5 1   
     4    1    6 1   
     5    2    3 2   
     6    2    7 1   
     7    7    8 1   
     8    7   15 1   
     9    8    9 1   
    10    8   11 1   
    11    8   16 1   
    12    9   10 2   
    13    9   19 1   
    14   11   12 1   
    15   11   17 1   
    16   11   18 1   
    17   12   13 1   
    18   12   14 1   
    19   19   20 1   
    20   19   24 1   
    21   20   21 1   
    22   20   23 1   
    23   20   25 1   
    24   21   22 2   
    25   21   29 1   
    26   23   26 1   
    27   23   27 1   
    28   23   28 1   
    29   29   30 1   
    30   29   37 1   
    31   30   31 1   
    32   30   33 1   
    33   30   38 1   
    34   31   32 2   
    35   31   41 1   
    36   33   34 1   
    37   33   39 1   
    38   33   40 1   
    39   34   35 1   
    40   34   36 1   
    41   41   42 1   
    42   41   45 1   
    43   42   43 1   
    44   42   46 1   
    45   42   47 1   
    46   43   44 2   
    47   43   48 1   
    48   48   49 1   
    49   48   56 1   
    50   49   50 1   
    51   49   52 1   
    52   49   57 1   
    53   50   51 2   
    54   50   62 1   
    55   52   53 1   
    56   52   58 1   
    57   52   59 1   
    58   53   54 1   
    59   53   55 2   
    60   54   60 1   
    61   54   61 1   
    62   62   63 1   
    63   62   66 1   
    64   63   64 1   
    65   63   67 1   
    66   63   68 1   
    67   64   65 2   
    68   64   69 1   
    69   69   70 1   
    70   69   76 1   
    71   70   71 1   
    72   70   73 1   
    73   70   77 1   
    74   71   72 2   
    75   71   83 1   
    76   73   74 1   
    77   73   75 1   
    78   73   78 1   
    79   74   80 1   
    80   74   81 1   
    81   74   82 1   
    82   75   79 1   
    83   83   84 1   
    84   83   91 1   
    85   84   85 1   
    86   84   87 1   
    87   84   92 1   
    88   85   86 2   
    89   85  102 1   
    90   87   88 1   
    91   87   89 1   
    92   87   93 1   
    93   88   90 1   
    94   88   94 1   
    95   88   95 1   
    96   89   96 1   
    97   89   97 1   
    98   89   98 1   
    99   90   99 1   
   100   90  100 1   
   101   90  101 1   
   102  102  103 1   
   103  102  110 1   
   104  103  104 1   
   105  103  106 1   
   106  103  111 1   
   107  104  105 2   
   108  104  114 1   
   109  106  107 1   
   110  106  112 1   
   111  106  113 1   
   112  107  108 1   
   113  107  109 1   
   114  114  115 1   
   115  114  125 1   
   116  115  116 1   
   117  115  118 1   
   118  115  126 1   
   119  116  117 2   
   120  116  134 1   
   121  118  119 1   
   122  118  127 1   
   123  118  128 1   
   124  119  120 ar  
   125  119  121 ar  
   126  120  122 ar  
   127  120  129 1   
   128  121  123 ar  
   129  121  130 1   
   130  122  124 ar  
   131  122  131 1   
   132  123  124 ar  
   133  123  132 1   
   134  124  133 1   
   135  134  135 1   
   136  134  140 1   
   137  135  136 1   
   138  135  138 1   
   139  135  141 1   
   140  136  137 2   
   141  136  148 1   
   142  138  139 1   
   143  138  142 1   
   144  138  143 1   
   145  139  140 1   
   146  139  144 1   
   147  139  145 1   
   148  140  146 1   
   149  140  147 1   
   150  148  149 1   
   151  148  157 1   
   152  149  150 1   
   153  149  152 1   
   154  149  158 1   
   155  150  151 2   
   156  150  163 1   
   157  152  153 1   
   158  152  159 1   
   159  152  160 1   
   160  153  154 1   
   161  153  161 1   
   162  153  162 1   
   163  154  155 1   
   164  154  156 1   
   165  163  164 1   
   166  163  168 1   
   167  164  165 1   
   168  164  166 1   
   169  164  167 1   
   170  170  171 1   
   171  170  172 1   
   172  173  174 1   
   173  173  175 1   
@<TRIPOS>SUBSTRUCTURE
     1 MOL         1 TEMP              0 ****  ****    0 ROOT
