@<TRIPOS>MOLECULE
MOL
  175   173     1     0     0
SMALL
resp


@<TRIPOS>ATOM
      1 C1          0.7630    4.1360    5.3970 c3        1 MOL     -0.365544
      2 C2          0.0890    4.0130    4.0220 c         1 MOL      0.697087
      3 O1          0.8070    4.1080    3.0510 o         1 MOL     -0.514766
      4 H1          1.7660    3.7110    5.3480 hc        1 MOL      0.085674
      5 H2          0.8280    5.1870    5.6780 hc        1 MOL      0.085674
      6 H3          0.1760    3.5960    6.1400 hc        1 MOL      0.085674
      7 N1         -1.2230    3.8370    3.9290 n         1 MOL     -0.664735
      8 C3         -1.9340    3.6480    2.7300 c3        1 MOL      0.275052
      9 C4         -1.8710    4.8830    1.8170 c         1 MOL      0.528184
     10 O2         -1.8920    6.0640    2.2600 o         1 MOL     -0.572467
     11 C5         -3.3930    3.1590    3.0180 c3        1 MOL     -0.307804
     12 C6         -4.0290    2.4590    1.8350 c         1 MOL      0.776068
     13 O3         -5.2150    2.1830    1.8720 o         1 MOL     -0.681192
     14 O4         -3.4480    2.2140    0.7420 o         1 MOL     -0.681192
     15 H4         -1.6780    3.9470    4.8310 hn        1 MOL      0.323563
     16 H5         -1.4590    2.8490    2.1620 h1        1 MOL      0.085162
     17 H6         -4.0820    3.9340    3.3670 hc        1 MOL      0.061402
     18 H7         -3.4710    2.3370    3.7400 hc        1 MOL      0.061402
     19 N2         -1.7880    4.6140    0.4990 n         1 MOL     -0.495426
     20 C7         -1.9810    5.5720   -0.6090 c3        1 MOL      0.118879
     21 C8         -2.8080    5.0760   -1.8200 c         1 MOL      0.494712
     22 O5         -2.9670    5.7730   -2.8430 o         1 MOL     -0.586272
     23 C9         -0.5850    6.0980   -1.0730 c3        1 MOL     -0.131980
     24 H8         -1.6570    3.6890    0.1230 hn        1 MOL      0.363825
     25 H9         -2.4940    6.4680   -0.2500 h1        1 MOL      0.052546
     26 H10         0.0220    6.4670   -0.2420 hc        1 MOL      0.037116
     27 H11         0.0130    5.2880   -1.4910 hc        1 MOL      0.037116
     28 H12        -0.6220    6.9630   -1.7330 hc        1 MOL      0.037116
     29 N3         -3.4610    3.9190   -1.6950 n         1 MOL     -0.408050
     30 C10        -4.3040    3.4240   -2.8370 c3        1 MOL      0.124771
     31 C11        -5.6330    2.7610   -2.3800 c         1 MOL      0.384038
     32 O6         -6.4370    2.7440   -3.3170 o         1 MOL     -0.561292
     33 C12        -3.5410    2.4590   -3.7330 c3        1 MOL     -0.121625
     34 C13        -2.9540    1.3410   -2.8400 c         1 MOL      0.640253
     35 O7         -3.7690    0.7530   -2.0180 o         1 MOL     -0.683482
     36 O8         -1.7210    1.0900   -2.8110 o         1 MOL     -0.683482
     37 H13        -3.2830    3.5010   -0.7820 hn        1 MOL      0.174108
     38 H14        -4.6500    4.2840   -3.4260 h1        1 MOL      0.093410
     39 H15        -2.7390    2.9980   -4.2360 hc        1 MOL      0.037600
     40 H16        -4.1390    2.1380   -4.5880 hc        1 MOL      0.037600
     41 N4         -5.9310    2.4840   -1.1190 n         1 MOL     -0.230593
     42 C14        -7.1520    1.7850   -0.7250 c3        1 MOL     -0.268469
     43 C15        -7.3040    0.2550   -1.1210 c         1 MOL      0.560896
     44 O9         -8.2180   -0.4520   -0.7870 o         1 MOL     -0.640272
     45 H17        -5.1850    2.6190   -0.4570 hn        1 MOL      0.231252
     46 H18        -7.9490    2.3310   -1.2170 h1        1 MOL      0.131005
     47 H19        -7.3490    1.7920    0.3440 h1        1 MOL      0.131005
     48 N5         -6.2790   -0.3280   -1.7110 n         1 MOL     -0.328619
     49 C16        -6.2860   -1.7590   -2.3530 c3        1 MOL     -0.008154
     50 C17        -6.5310   -2.9270   -1.4210 c         1 MOL      0.460934
     51 O10        -6.6840   -4.0340   -1.9060 o         1 MOL     -0.538629
     52 C18        -5.0240   -1.9100   -3.1530 c3        1 MOL     -0.129769
     53 C19        -3.7190   -2.1450   -2.4770 c         1 MOL      0.499105
     54 N6         -2.6490   -2.3750   -3.2230 n         1 MOL     -0.707856
     55 O11        -3.5810   -1.9950   -1.2580 o         1 MOL     -0.321353
     56 H20        -5.5420    0.2990   -1.9990 hn        1 MOL      0.242615
     57 H21        -7.0550   -1.7430   -3.1260 h1        1 MOL      0.092835
     58 H22        -4.8110   -1.1640   -3.9200 hc        1 MOL      0.057321
     59 H23        -5.3340   -2.7610   -3.7680 hc        1 MOL      0.057321
     60 H24        -2.6260   -2.2810   -4.2250 hn        1 MOL      0.339801
     61 H25        -1.7540   -2.3130   -2.7660 hn        1 MOL      0.339801
     62 N7         -6.5310   -2.6700   -0.0800 n         1 MOL     -0.162678
     63 C20        -6.7430   -3.6630    1.0190 c3        1 MOL     -0.176177
     64 C21        -5.3710   -4.3410    1.4900 c         1 MOL      0.512961
     65 O12        -5.3400   -5.0520    2.5080 o         1 MOL     -0.609441
     66 H26        -6.4150   -1.7220    0.2550 hn        1 MOL      0.270610
     67 H27        -7.4590   -4.3390    0.5530 h1        1 MOL      0.093230
     68 H28        -7.2410   -3.2560    1.9020 h1        1 MOL      0.093230
     69 N8         -4.1920   -3.9240    1.0610 n         1 MOL     -0.023612
     70 C22        -2.8910   -4.5030    1.4610 c3        1 MOL     -0.262155
     71 C23        -1.8340   -3.3980    1.5780 c         1 MOL      0.712424
     72 O13        -2.0210   -2.2900    1.1740 o         1 MOL     -0.607749
     73 C24        -2.3740   -5.4040    0.4230 c3        1 MOL      0.450875
     74 C25        -3.2230   -6.7200    0.5910 c3        1 MOL     -0.301703
     75 O14        -2.5330   -4.9390   -0.9600 oh        1 MOL     -0.627113
     76 H29        -4.1940   -3.1090    0.4610 hn        1 MOL     -0.023537
     77 H30        -2.8940   -5.1360    2.3540 h1        1 MOL      0.105354
     78 H31        -1.3570   -5.6980    0.6920 h1        1 MOL     -0.009836
     79 H32        -2.1010   -4.1110   -1.1690 ho        1 MOL      0.361003
     80 H33        -3.2430   -7.1400    1.6000 hc        1 MOL      0.071555
     81 H34        -4.2540   -6.6770    0.2360 hc        1 MOL      0.071555
     82 H35        -2.7280   -7.5100    0.0350 hc        1 MOL      0.071555
     83 N9         -0.6870   -3.7420    2.1640 n         1 MOL     -0.676475
     84 C26         0.5800   -2.9280    2.1690 c3        1 MOL      0.057213
     85 C27         1.2540   -3.2610    0.8040 c         1 MOL      0.581769
     86 O15         1.2940   -4.4050    0.3800 o         1 MOL     -0.586071
     87 C28         1.3880   -3.2030    3.4240 c3        1 MOL      0.152863
     88 C29         0.7950   -2.3270    4.5560 c3        1 MOL      0.105801
     89 C30         2.8650   -2.8450    3.1730 c3        1 MOL     -0.223929
     90 C31         1.5460   -2.6170    5.8650 c3        1 MOL     -0.263996
     91 H36        -0.6650   -4.7260    2.4000 hn        1 MOL      0.305704
     92 H37         0.2460   -1.8940    2.1810 h1        1 MOL      0.021267
     93 H38         1.2820   -4.2560    3.6700 hc        1 MOL      0.004124
     94 H39        -0.2550   -2.5840    4.6990 hc        1 MOL     -0.007157
     95 H40         0.9260   -1.2960    4.2340 hc        1 MOL     -0.007157
     96 H41         3.3680   -2.9530    4.1340 hc        1 MOL      0.038184
     97 H42         3.3470   -3.4780    2.4350 hc        1 MOL      0.038184
     98 H43         2.9020   -1.8060    2.8580 hc        1 MOL      0.038184
     99 H44         1.6520   -3.7060    5.8600 hc        1 MOL      0.058210
    100 H45         2.4860   -2.0820    5.7770 hc        1 MOL      0.058210
    101 H46         0.9720   -2.3310    6.7420 hc        1 MOL      0.058210
    102 N10         1.7560   -2.2000    0.2630 n         1 MOL     -0.263374
    103 C32         2.6010   -2.1980   -0.9650 c3        1 MOL      0.000289
    104 C33         4.0770   -1.7510   -0.6670 c         1 MOL      0.459901
    105 O16         4.4390   -1.2280    0.3870 o         1 MOL     -0.400585
    106 C34         1.9240   -1.3250   -2.0150 c3        1 MOL     -0.215319
    107 C35         0.5050   -1.7730   -2.2540 c         1 MOL      0.790871
    108 O17        -0.4620   -1.4480   -1.5460 o         1 MOL     -0.699320
    109 O18         0.4070   -2.4730   -3.2950 o         1 MOL     -0.699320
    110 H47         1.4670   -1.3310    0.7060 hn        1 MOL      0.198250
    111 H48         2.7470   -3.2080   -1.3390 h1        1 MOL      0.080220
    112 H49         2.3750   -1.4010   -3.0030 hc        1 MOL      0.055986
    113 H50         1.8170   -0.3120   -1.6160 hc        1 MOL      0.055986
    114 N11         4.9750   -1.7920   -1.6400 n         1 MOL     -0.586996
    115 C36         6.4500   -1.4830   -1.4390 c3        1 MOL      0.342614
    116 C37         6.7720   -0.0170   -1.2980 c         1 MOL      0.272320
    117 O19         7.5760    0.3540   -0.4410 o         1 MOL     -0.449233
    118 C38         7.3310   -2.2240   -2.4370 c3        1 MOL     -0.372316
    119 C39         8.8030   -1.9270   -2.2140 ca        1 MOL      0.117030
    120 C40         9.4640   -2.4060   -1.0680 ca        1 MOL     -0.109768
    121 C41         9.5330   -1.1970   -3.1640 ca        1 MOL     -0.109768
    122 C42        10.7720   -2.1030   -0.7360 ca        1 MOL     -0.208962
    123 C43        10.9010   -1.0340   -3.0020 ca        1 MOL     -0.208962
    124 C44        11.4650   -1.3640   -1.7330 ca        1 MOL     -0.007405
    125 H51         4.6790   -2.0450   -2.5740 hn        1 MOL      0.315043
    126 H52         6.6710   -1.9310   -0.4760 h1        1 MOL      0.076742
    127 H53         7.0070   -1.8850   -3.4210 hc        1 MOL      0.109637
    128 H54         7.2230   -3.3020   -2.3400 hc        1 MOL      0.109637
    129 H55         8.9150   -2.7930   -0.2240 ha        1 MOL      0.105767
    130 H56         9.0510   -0.9000   -4.0840 ha        1 MOL      0.105767
    131 H57        11.1040   -2.2540    0.2790 ha        1 MOL      0.143428
    132 H58        11.4930   -0.5370   -3.7510 ha        1 MOL      0.143428
    133 H59        12.5090   -1.1480   -1.5480 ha        1 MOL      0.063486
    134 N12         6.0890    0.9250   -1.9920 n         1 MOL     -0.061397
    135 C45         6.2090    2.3200   -1.6050 c3        1 MOL     -0.032456
    136 C46         5.8070    2.6760   -0.0950 c         1 MOL      0.197531
    137 O20         6.4460    3.5090    0.5660 o         1 MOL     -0.454309
    138 C47         5.3250    3.1010   -2.6020 c3        1 MOL      0.093369
    139 C48         5.0080    2.1420   -3.7440 c3        1 MOL     -0.144823
    140 C49         5.0210    0.8070   -3.0230 c3        1 MOL     -0.076022
    141 H60         7.2520    2.6130   -1.7540 h1        1 MOL      0.070214
    142 H61         4.4440    3.5150   -2.1150 hc        1 MOL      0.002094
    143 H62         5.8880    3.8910   -3.0930 hc        1 MOL      0.002094
    144 H63         4.0310    2.4540   -4.1010 hc        1 MOL      0.061200
    145 H64         5.7850    2.1320   -4.5020 hc        1 MOL      0.061200
    146 H65         4.0170    0.6540   -2.6410 h1        1 MOL      0.055675
    147 H66         5.2600    0.0200   -3.7450 h1        1 MOL      0.055675
    148 N13         4.7730    1.9330    0.3500 n         1 MOL      0.044681
    149 C50         4.2150    2.0100    1.7180 c3        1 MOL     -0.248012
    150 C51         5.0170    1.2930    2.8390 c         1 MOL      0.526889
    151 O21         5.1050    1.7620    3.9750 o         1 MOL     -0.554489
    152 C52         2.7460    1.4400    1.5980 c3        1 MOL     -0.052055
    153 C53         1.8130    2.1990    0.6580 c3        1 MOL     -0.224507
    154 C54         0.3890    1.5270    0.5860 c         1 MOL      0.494452
    155 O22         0.1840    0.4390    1.1490 o         1 MOL     -0.627106
    156 O23        -0.5400    2.1070   -0.0490 o         1 MOL     -0.627106
    157 H67         4.1320    1.4530   -0.2700 hn        1 MOL      0.232744
    158 H68         4.0230    3.0530    2.0020 h1        1 MOL      0.128016
    159 H69         2.1990    1.2750    2.5190 hc        1 MOL      0.081446
    160 H70         2.8580    0.4210    1.2100 hc        1 MOL      0.081446
    161 H71         2.2610    2.3080   -0.3200 hc        1 MOL      0.079624
    162 H72         1.5770    3.2000    1.0120 hc        1 MOL      0.079624
    163 N14         5.6710    0.1890    2.4010 n         1 MOL     -0.126459
    164 C55         6.6090   -0.5320    3.3060 c3        1 MOL     -0.232166
    165 H73         7.4610   -0.8960    2.7310 h1        1 MOL      0.089950
    166 H74         6.9600    0.1480    4.0830 h1        1 MOL      0.089950
    167 H75         6.0940   -1.3750    3.7660 h1        1 MOL      0.089950
    168 H76         5.3100   -0.1840    1.5420 hn        1 MOL      0.081099
    169 Ca1        -2.1030   -0.0180   -0.0770 Ca        1 MOL      1.646208
    170 O24        -4.7470   -0.3210    1.1300 oh        1 MOL     -0.772644
    171 H77        -4.6800    0.6270    1.0820 ho        1 MOL      0.368400
    172 H78        -4.9850   -0.5100    2.0330 ho        1 MOL      0.368400
    173 O25        -2.0970    0.1060    2.8030 oh        1 MOL     -0.772644
    174 H79        -2.3270    0.4730    3.6540 ho        1 MOL      0.368400
    175 H80        -1.5160   -0.6280    3.0030 ho        1 MOL      0.368400
@<TRIPOS>BOND
     1    1    2 1   
     2    1    4 1   
     3    1    5 1   
     4    1    6 1   
     5    2    3 2   
     6    2    7 1   
     7    7    8 1   
     8    7   15 1   
     9    8    9 1   
    10    8   11 1   
    11    8   16 1   
    12    9   10 2   
    13    9   19 1   
    14   11   12 1   
    15   11   17 1   
    16   11   18 1   
    17   12   13 1   
    18   12   14 1   
    19   19   20 1   
    20   19   24 1   
    21   20   21 1   
    22   20   23 1   
    23   20   25 1   
    24   21   22 2   
    25   21   29 1   
    26   23   26 1   
    27   23   27 1   
    28   23   28 1   
    29   29   30 1   
    30   29   37 1   
    31   30   31 1   
    32   30   33 1   
    33   30   38 1   
    34   31   32 2   
    35   31   41 1   
    36   33   34 1   
    37   33   39 1   
    38   33   40 1   
    39   34   35 1   
    40   34   36 1   
    41   41   42 1   
    42   41   45 1   
    43   42   43 1   
    44   42   46 1   
    45   42   47 1   
    46   43   44 2   
    47   43   48 1   
    48   48   49 1   
    49   48   56 1   
    50   49   50 1   
    51   49   52 1   
    52   49   57 1   
    53   50   51 2   
    54   50   62 1   
    55   52   53 1   
    56   52   58 1   
    57   52   59 1   
    58   53   54 1   
    59   53   55 2   
    60   54   60 1   
    61   54   61 1   
    62   62   63 1   
    63   62   66 1   
    64   63   64 1   
    65   63   67 1   
    66   63   68 1   
    67   64   65 2   
    68   64   69 1   
    69   69   70 1   
    70   69   76 1   
    71   70   71 1   
    72   70   73 1   
    73   70   77 1   
    74   71   72 2   
    75   71   83 1   
    76   73   74 1   
    77   73   75 1   
    78   73   78 1   
    79   74   80 1   
    80   74   81 1   
    81   74   82 1   
    82   75   79 1   
    83   83   84 1   
    84   83   91 1   
    85   84   85 1   
    86   84   87 1   
    87   84   92 1   
    88   85   86 2   
    89   85  102 1   
    90   87   88 1   
    91   87   89 1   
    92   87   93 1   
    93   88   90 1   
    94   88   94 1   
    95   88   95 1   
    96   89   96 1   
    97   89   97 1   
    98   89   98 1   
    99   90   99 1   
   100   90  100 1   
   101   90  101 1   
   102  102  103 1   
   103  102  110 1   
   104  103  104 1   
   105  103  106 1   
   106  103  111 1   
   107  104  105 2   
   108  104  114 1   
   109  106  107 1   
   110  106  112 1   
   111  106  113 1   
   112  107  108 1   
   113  107  109 1   
   114  114  115 1   
   115  114  125 1   
   116  115  116 1   
   117  115  118 1   
   118  115  126 1   
   119  116  117 2   
   120  116  134 1   
   121  118  119 1   
   122  118  127 1   
   123  118  128 1   
   124  119  120 ar  
   125  119  121 ar  
   126  120  122 ar  
   127  120  129 1   
   128  121  123 ar  
   129  121  130 1   
   130  122  124 ar  
   131  122  131 1   
   132  123  124 ar  
   133  123  132 1   
   134  124  133 1   
   135  134  135 1   
   136  134  140 1   
   137  135  136 1   
   138  135  138 1   
   139  135  141 1   
   140  136  137 2   
   141  136  148 1   
   142  138  139 1   
   143  138  142 1   
   144  138  143 1   
   145  139  140 1   
   146  139  144 1   
   147  139  145 1   
   148  140  146 1   
   149  140  147 1   
   150  148  149 1   
   151  148  157 1   
   152  149  150 1   
   153  149  152 1   
   154  149  158 1   
   155  150  151 2   
   156  150  163 1   
   157  152  153 1   
   158  152  159 1   
   159  152  160 1   
   160  153  154 1   
   161  153  161 1   
   162  153  162 1   
   163  154  155 1   
   164  154  156 1   
   165  163  164 1   
   166  163  168 1   
   167  164  165 1   
   168  164  166 1   
   169  164  167 1   
   170  170  171 1   
   171  170  172 1   
   172  173  174 1   
   173  173  175 1   
@<TRIPOS>SUBSTRUCTURE
     1 MOL         1 TEMP              0 ****  ****    0 ROOT
