@<TRIPOS>MOLECULE
MOL
  175   173     1     0     0
SMALL
resp


@<TRIPOS>ATOM
      1 C1         -1.2760    4.7970    4.9940 c3        1 MOL     -0.280288
      2 C2         -1.3310    4.0600    3.6040 c         1 MOL      0.811491
      3 O1         -0.3600    3.9480    2.8270 o         1 MOL     -0.643301
      4 H1         -1.4360    4.0750    5.7940 hc        1 MOL      0.062636
      5 H2         -0.3000    5.2660    5.1180 hc        1 MOL      0.062636
      6 H3         -2.0540    5.5590    5.0330 hc        1 MOL      0.062636
      7 N1         -2.4570    3.4150    3.3290 n         1 MOL     -0.818225
      8 C3         -2.6960    2.8080    2.0430 c3        1 MOL      0.506919
      9 C4         -2.8970    3.9040    0.9780 c         1 MOL      0.497301
     10 O2         -3.7080    4.7980    1.0880 o         1 MOL     -0.616966
     11 C5         -3.9130    1.8910    2.1850 c3        1 MOL     -0.221279
     12 C6         -4.2860    1.1680    0.9550 c         1 MOL      0.737214
     13 O3         -5.3600    0.5180    0.9670 o         1 MOL     -0.667333
     14 O4         -3.5720    1.2880   -0.1220 o         1 MOL     -0.667333
     15 H4         -3.1840    3.3780    4.0380 hn        1 MOL      0.349449
     16 H5         -1.8030    2.2270    1.8330 h1        1 MOL     -0.138810
     17 H6         -4.6530    2.6130    2.5240 hc        1 MOL      0.028407
     18 H7         -3.7250    1.2180    3.0170 hc        1 MOL      0.028407
     19 N2         -2.1610    3.8070   -0.1300 n         1 MOL     -0.108106
     20 C7         -2.1080    4.7730   -1.1750 c3        1 MOL     -0.000701
     21 C8         -3.2140    4.5970   -2.1680 c         1 MOL      0.669317
     22 O5         -3.2020    5.3960   -3.0970 o         1 MOL     -0.595473
     23 C9         -0.6780    4.7330   -1.7140 c3        1 MOL     -0.351221
     24 H8         -1.5180    3.0340   -0.2610 hn        1 MOL      0.128033
     25 H9         -2.2940    5.7750   -0.7930 h1        1 MOL      0.042474
     26 H10        -0.5130    5.2520   -2.6570 hc        1 MOL      0.112815
     27 H11        -0.0610    5.1410   -0.9220 hc        1 MOL      0.112815
     28 H12        -0.3910    3.6970   -1.8940 hc        1 MOL      0.112815
     29 N3         -4.0740    3.5980   -2.0940 n         1 MOL     -0.632133
     30 C10        -4.8570    3.2600   -3.3600 c3        1 MOL      0.170488
     31 C11        -6.3020    2.7350   -3.0020 c         1 MOL      0.420928
     32 O6         -7.1920    2.6480   -3.8270 o         1 MOL     -0.533657
     33 C12        -4.0370    2.3550   -4.3110 c3        1 MOL     -0.143481
     34 C13        -3.2530    1.2570   -3.5830 c         1 MOL      0.773160
     35 O7         -3.8170    0.1920   -3.3500 o         1 MOL     -0.742072
     36 O8         -2.0530    1.4450   -3.1690 o         1 MOL     -0.742072
     37 H13        -3.9910    2.9640   -1.3120 hn        1 MOL      0.237376
     38 H14        -5.0570    4.2200   -3.8420 h1        1 MOL      0.061409
     39 H15        -3.2640    2.9190   -4.8230 hc        1 MOL      0.033379
     40 H16        -4.7020    1.9710   -5.0790 hc        1 MOL      0.033379
     41 N4         -6.4850    2.1850   -1.7700 n         1 MOL     -0.199378
     42 C14        -7.6360    1.4740   -1.2300 c3        1 MOL     -0.203310
     43 C15        -7.6390   -0.0950   -1.3050 c         1 MOL      0.648948
     44 O9         -8.7140   -0.6650   -1.2290 o         1 MOL     -0.644987
     45 H17        -5.6960    2.3010   -1.1540 hn        1 MOL      0.213658
     46 H18        -8.4960    1.7810   -1.8260 h1        1 MOL      0.095592
     47 H19        -7.7480    1.7190   -0.1710 h1        1 MOL      0.095592
     48 N5         -6.5590   -0.8290   -1.3910 n         1 MOL     -0.172106
     49 C16        -6.5930   -2.2500   -1.3250 c3        1 MOL     -0.157657
     50 C17        -6.5540   -2.8760    0.0410 c         1 MOL      0.554009
     51 O10        -6.5800   -4.0790    0.1590 o         1 MOL     -0.571276
     52 C18        -5.6330   -2.8510   -2.3720 c3        1 MOL     -0.198949
     53 C19        -4.2030   -3.0980   -1.8900 c         1 MOL      0.635802
     54 N6         -3.4620   -4.0830   -2.3360 n         1 MOL     -0.724662
     55 O11        -3.5780   -2.2750   -1.2760 o         1 MOL     -0.560439
     56 H20        -5.6980   -0.3300   -1.5580 hn        1 MOL      0.113786
     57 H21        -7.5490   -2.6180   -1.6900 h1        1 MOL      0.153710
     58 H22        -5.6050   -2.3380   -3.3380 hc        1 MOL      0.092165
     59 H23        -6.0770   -3.8000   -2.6500 hc        1 MOL      0.092165
     60 H24        -3.9160   -4.9400   -2.6250 hn        1 MOL      0.335157
     61 H25        -2.4830   -4.0710   -2.0950 hn        1 MOL      0.335157
     62 N7         -6.4960   -2.0910    1.0650 n         1 MOL     -0.263248
     63 C20        -6.3210   -2.6470    2.3870 c3        1 MOL     -0.185692
     64 C21        -5.0270   -3.3320    2.7110 c         1 MOL      0.415658
     65 O12        -4.9870   -4.1060    3.7310 o         1 MOL     -0.577959
     66 H26        -6.2360   -1.1230    0.9660 hn        1 MOL      0.223792
     67 H27        -7.1830   -3.2420    2.6600 h1        1 MOL      0.120960
     68 H28        -6.3210   -1.8120    3.0880 h1        1 MOL      0.120960
     69 N8         -4.0350   -3.3650    1.8140 n         1 MOL      0.041705
     70 C22        -2.6520   -3.6100    2.2600 c3        1 MOL      0.023249
     71 C23        -1.8490   -2.2750    1.9760 c         1 MOL      0.390280
     72 O13        -2.2890   -1.3710    1.2350 o         1 MOL     -0.547694
     73 C24        -2.0370   -4.8190    1.6470 c3        1 MOL      0.249461
     74 C25        -2.7950   -6.1210    1.8870 c3        1 MOL     -0.380632
     75 O14        -1.9620   -4.7070    0.2550 oh        1 MOL     -0.609466
     76 H29        -4.2750   -2.9880    0.9090 hn        1 MOL      0.078515
     77 H30        -2.5970   -3.6950    3.3440 h1        1 MOL      0.051684
     78 H31        -1.0320   -4.9460    2.0410 h1        1 MOL      0.035236
     79 H32        -1.6650   -5.6050    0.0630 ho        1 MOL      0.404416
     80 H33        -3.7840   -5.9620    1.4520 hc        1 MOL      0.100726
     81 H34        -2.2020   -6.9440    1.4890 hc        1 MOL      0.100726
     82 H35        -2.8760   -6.2330    2.9660 hc        1 MOL      0.100726
     83 N9         -0.6340   -2.2720    2.6340 n         1 MOL     -0.269385
     84 C26         0.5120   -1.4150    2.3390 c3        1 MOL     -0.323166
     85 C27         1.6590   -2.3210    1.7120 c         1 MOL      0.324591
     86 O15         2.0510   -3.3920    2.1780 o         1 MOL     -0.542518
     87 C28         0.9000   -0.5910    3.6000 c3        1 MOL      0.407905
     88 C29         1.5290   -1.3680    4.8050 c3        1 MOL     -0.189099
     89 C30        -0.3430    0.1830    3.9670 c3        1 MOL      0.014632
     90 C31         1.9110   -0.4550    6.0190 c3        1 MOL     -0.117965
     91 H36        -0.4670   -3.1200    3.1560 hn        1 MOL      0.236148
     92 H37         0.1730   -0.7240    1.5710 h1        1 MOL      0.203041
     93 H38         1.6620    0.1490    3.3590 hc        1 MOL     -0.125798
     94 H39         2.4540   -1.8200    4.4460 hc        1 MOL      0.049158
     95 H40         0.8800   -2.1370    5.2300 hc        1 MOL      0.049158
     96 H41        -0.7320    0.6850    3.0880 hc        1 MOL     -0.010663
     97 H42        -1.0830   -0.4820    4.4310 hc        1 MOL     -0.010663
     98 H43        -0.0740    0.9350    4.7000 hc        1 MOL     -0.010663
     99 H44         1.0400    0.0650    6.4210 hc        1 MOL      0.028667
    100 H45         2.4060   -1.0420    6.8030 hc        1 MOL      0.028667
    101 H46         2.6150    0.3350    5.7800 hc        1 MOL      0.028667
    102 N10         2.0190   -1.9080    0.5130 n         1 MOL     -0.089689
    103 C32         3.1760   -2.3920   -0.2050 c3        1 MOL     -0.083891
    104 C33         4.4680   -1.7980    0.4890 c         1 MOL      0.576638
    105 O16         4.3120   -1.1970    1.6070 o         1 MOL     -0.498884
    106 C34         3.0160   -1.9330   -1.6700 c3        1 MOL     -0.217822
    107 C35         3.6420   -2.7850   -2.7640 c         1 MOL      0.733654
    108 O17         4.8390   -2.5860   -2.9720 o         1 MOL     -0.725176
    109 O18         2.9330   -3.6990   -3.2560 o         1 MOL     -0.725176
    110 H47         1.4820   -1.2130    0.0210 hn        1 MOL      0.278599
    111 H48         3.2230   -3.4770   -0.1790 h1        1 MOL      0.088423
    112 H49         3.3660   -0.9170   -1.8560 hc        1 MOL      0.032523
    113 H50         1.9610   -1.8270   -1.9370 hc        1 MOL      0.032523
    114 N11         5.6570   -1.9370   -0.1280 n         1 MOL     -0.654568
    115 C36         6.9480   -1.3960    0.4130 c3        1 MOL      0.416076
    116 C37         7.1360    0.1210    0.3330 c         1 MOL      0.050105
    117 O19         7.7800    0.5810    1.1960 o         1 MOL     -0.492848
    118 C38         8.1140   -2.3290   -0.0490 c3        1 MOL     -0.235218
    119 C39         8.6500   -2.0110   -1.4190 ca        1 MOL      0.208412
    120 C40         9.4940   -0.8950   -1.6160 ca        1 MOL     -0.255798
    121 C41         8.4370   -2.8280   -2.5720 ca        1 MOL     -0.255798
    122 C42        10.1050   -0.5790   -2.8210 ca        1 MOL     -0.046723
    123 C43         9.0850   -2.5220   -3.7600 ca        1 MOL     -0.046723
    124 C44         9.9040   -1.3800   -3.9230 ca        1 MOL     -0.203469
    125 H51         5.7110   -2.4630   -0.9860 hn        1 MOL      0.347061
    126 H52         6.8320   -1.5920    1.4750 h1        1 MOL      0.034165
    127 H53         7.7250   -3.3460   -0.0270 hc        1 MOL      0.067185
    128 H54         8.9010   -2.1870    0.6890 hc        1 MOL      0.067185
    129 H55         9.7190   -0.2350   -0.7890 ha        1 MOL      0.156670
    130 H56         7.7650   -3.6680   -2.6330 ha        1 MOL      0.156670
    131 H57        10.8230    0.2200   -2.9390 ha        1 MOL      0.094238
    132 H58         8.9910   -3.2280   -4.5720 ha        1 MOL      0.094238
    133 H59        10.3220   -1.2280   -4.9100 ha        1 MOL      0.120116
    134 N12         6.6390    0.8330   -0.6460 n         1 MOL      0.239337
    135 C45         6.8410    2.3140   -0.5940 c3        1 MOL      0.071303
    136 C46         5.8110    3.1120    0.1770 c         1 MOL      0.342558
    137 O20         6.0150    4.1280    0.7470 o         1 MOL     -0.469746
    138 C47         6.9480    2.6600   -2.0410 c3        1 MOL     -0.136124
    139 C48         6.8570    1.4020   -2.9420 c3        1 MOL      0.008257
    140 C49         6.2890    0.3840   -1.9370 c3        1 MOL     -0.343382
    141 H60         7.8070    2.5770   -0.1570 h1        1 MOL      0.044837
    142 H61         6.1450    3.3760   -2.2260 hc        1 MOL      0.034735
    143 H62         7.8930    3.1780   -2.2180 hc        1 MOL      0.034735
    144 H63         6.1160    1.5420   -3.7220 hc        1 MOL      0.029225
    145 H64         7.7840    1.1260   -3.4340 hc        1 MOL      0.029225
    146 H65         5.2190    0.4170   -2.0900 h1        1 MOL      0.171877
    147 H66         6.7580   -0.5480   -2.2600 h1        1 MOL      0.171877
    148 N13         4.6090    2.4790    0.3160 n         1 MOL     -0.176210
    149 C50         3.5320    2.8760    1.2310 c3        1 MOL     -0.152224
    150 C51         4.0220    2.7890    2.7340 c         1 MOL      0.421993
    151 O21         3.9560    3.7960    3.4410 o         1 MOL     -0.534176
    152 C52         2.3350    1.9620    1.0950 c3        1 MOL      0.021805
    153 C53         1.8120    2.0390   -0.3830 c3        1 MOL      0.148867
    154 C54         0.5820    1.2020   -0.4760 c         1 MOL      0.620993
    155 O22         0.6860    0.0660   -0.9870 o         1 MOL     -0.712739
    156 O23        -0.5280    1.5990   -0.0020 o         1 MOL     -0.712739
    157 H67         4.4150    1.6300   -0.1980 hn        1 MOL      0.149961
    158 H68         3.1590    3.8730    0.9950 h1        1 MOL      0.118191
    159 H69         1.5090    2.2540    1.7490 hc        1 MOL      0.070374
    160 H70         2.6830    0.9670    1.3590 hc        1 MOL      0.070374
    161 H71         2.5830    1.5590   -0.9790 hc        1 MOL     -0.067513
    162 H72         1.7570    3.0230   -0.8330 hc        1 MOL     -0.067513
    163 N14         4.7200    1.6920    3.0510 n         1 MOL     -0.030994
    164 C55         5.3160    1.4740    4.3930 c3        1 MOL     -0.263070
    165 H73         5.0890    0.4630    4.7310 h1        1 MOL      0.097853
    166 H74         6.3970    1.6020    4.3360 h1        1 MOL      0.097853
    167 H75         4.9010    2.1950    5.0970 h1        1 MOL      0.097853
    168 H76         4.9040    1.0220    2.3140 hn        1 MOL      0.148588
    169 Ca1        -1.8910   -0.3090   -1.2650 Ca        1 MOL      1.696457
    170 O24        -0.6250   -2.6600   -0.5930 oh        1 MOL     -0.795557
    171 H77        -1.2510   -3.2900   -0.2590 ho        1 MOL      0.386398
    172 H78         0.0800   -3.1880   -0.9600 ho        1 MOL      0.386398
    173 O25        -0.8130   -1.6970   -3.3500 oh        1 MOL     -0.795557
    174 H79        -0.1720   -2.4020   -3.3540 ho        1 MOL      0.386398
    175 H80        -1.4740   -1.9490   -3.9930 ho        1 MOL      0.386398
@<TRIPOS>BOND
     1    1    2 1   
     2    1    4 1   
     3    1    5 1   
     4    1    6 1   
     5    2    3 2   
     6    2    7 1   
     7    7    8 1   
     8    7   15 1   
     9    8    9 1   
    10    8   11 1   
    11    8   16 1   
    12    9   10 2   
    13    9   19 1   
    14   11   12 1   
    15   11   17 1   
    16   11   18 1   
    17   12   13 1   
    18   12   14 1   
    19   19   20 1   
    20   19   24 1   
    21   20   21 1   
    22   20   23 1   
    23   20   25 1   
    24   21   22 2   
    25   21   29 1   
    26   23   26 1   
    27   23   27 1   
    28   23   28 1   
    29   29   30 1   
    30   29   37 1   
    31   30   31 1   
    32   30   33 1   
    33   30   38 1   
    34   31   32 2   
    35   31   41 1   
    36   33   34 1   
    37   33   39 1   
    38   33   40 1   
    39   34   35 1   
    40   34   36 1   
    41   41   42 1   
    42   41   45 1   
    43   42   43 1   
    44   42   46 1   
    45   42   47 1   
    46   43   44 2   
    47   43   48 1   
    48   48   49 1   
    49   48   56 1   
    50   49   50 1   
    51   49   52 1   
    52   49   57 1   
    53   50   51 2   
    54   50   62 1   
    55   52   53 1   
    56   52   58 1   
    57   52   59 1   
    58   53   54 1   
    59   53   55 2   
    60   54   60 1   
    61   54   61 1   
    62   62   63 1   
    63   62   66 1   
    64   63   64 1   
    65   63   67 1   
    66   63   68 1   
    67   64   65 2   
    68   64   69 1   
    69   69   70 1   
    70   69   76 1   
    71   70   71 1   
    72   70   73 1   
    73   70   77 1   
    74   71   72 2   
    75   71   83 1   
    76   73   74 1   
    77   73   75 1   
    78   73   78 1   
    79   74   80 1   
    80   74   81 1   
    81   74   82 1   
    82   75   79 1   
    83   83   84 1   
    84   83   91 1   
    85   84   85 1   
    86   84   87 1   
    87   84   92 1   
    88   85   86 2   
    89   85  102 1   
    90   87   88 1   
    91   87   89 1   
    92   87   93 1   
    93   88   90 1   
    94   88   94 1   
    95   88   95 1   
    96   89   96 1   
    97   89   97 1   
    98   89   98 1   
    99   90   99 1   
   100   90  100 1   
   101   90  101 1   
   102  102  103 1   
   103  102  110 1   
   104  103  104 1   
   105  103  106 1   
   106  103  111 1   
   107  104  105 2   
   108  104  114 1   
   109  106  107 1   
   110  106  112 1   
   111  106  113 1   
   112  107  108 1   
   113  107  109 1   
   114  114  115 1   
   115  114  125 1   
   116  115  116 1   
   117  115  118 1   
   118  115  126 1   
   119  116  117 2   
   120  116  134 1   
   121  118  119 1   
   122  118  127 1   
   123  118  128 1   
   124  119  120 ar  
   125  119  121 ar  
   126  120  122 ar  
   127  120  129 1   
   128  121  123 ar  
   129  121  130 1   
   130  122  124 ar  
   131  122  131 1   
   132  123  124 ar  
   133  123  132 1   
   134  124  133 1   
   135  134  135 1   
   136  134  140 1   
   137  135  136 1   
   138  135  138 1   
   139  135  141 1   
   140  136  137 2   
   141  136  148 1   
   142  138  139 1   
   143  138  142 1   
   144  138  143 1   
   145  139  140 1   
   146  139  144 1   
   147  139  145 1   
   148  140  146 1   
   149  140  147 1   
   150  148  149 1   
   151  148  157 1   
   152  149  150 1   
   153  149  152 1   
   154  149  158 1   
   155  150  151 2   
   156  150  163 1   
   157  152  153 1   
   158  152  159 1   
   159  152  160 1   
   160  153  154 1   
   161  153  161 1   
   162  153  162 1   
   163  154  155 1   
   164  154  156 1   
   165  163  164 1   
   166  163  168 1   
   167  164  165 1   
   168  164  166 1   
   169  164  167 1   
   170  170  171 1   
   171  170  172 1   
   172  173  174 1   
   173  173  175 1   
@<TRIPOS>SUBSTRUCTURE
     1 MOL         1 TEMP              0 ****  ****    0 ROOT
