@<TRIPOS>MOLECULE
MOL
  189   185     1     0     0
SMALL
resp


@<TRIPOS>ATOM
      1 C1          0.7900   -5.0670    4.9360 c3        1 MOL     -0.458680
      2 C2          1.4540   -4.2150    3.8940 c         1 MOL      0.633096
      3 O1          1.1800   -2.9790    3.8530 o         1 MOL     -0.552062
      4 H1         -0.2550   -4.7740    5.0320 hc        1 MOL      0.117111
      5 H2          0.8480   -6.1140    4.6410 hc        1 MOL      0.117111
      6 H3          1.2940   -4.9300    5.8930 hc        1 MOL      0.117111
      7 N1          2.2910   -4.8640    3.0530 n         1 MOL     -0.451879
      8 C3          2.9980   -4.1400    1.9420 c3        1 MOL      0.076213
      9 C4          3.2000   -5.1510    0.7390 c         1 MOL      0.518183
     10 O2          3.6010   -6.3050    0.7680 o         1 MOL     -0.590023
     11 C5          4.3270   -3.5690    2.3760 c3        1 MOL     -0.367844
     12 C6          4.8980   -2.5310    1.3880 c         1 MOL      0.823689
     13 O3          5.8340   -1.8290    1.8690 o         1 MOL     -0.690685
     14 O4          4.3380   -2.2290    0.3020 o         1 MOL     -0.690685
     15 H4          2.4210   -5.8520    3.1630 hn        1 MOL      0.289911
     16 H5          2.5040   -3.2400    1.5770 h1        1 MOL      0.168565
     17 H6          5.0100   -4.3720    2.6170 hc        1 MOL      0.077470
     18 H7          4.1820   -3.0340    3.3110 hc        1 MOL      0.077470
     19 N2          2.6010   -4.6810   -0.3350 n         1 MOL     -0.188855
     20 C7          2.3890   -5.3740   -1.5790 c3        1 MOL      0.022689
     21 C8          3.1910   -4.7980   -2.7320 c         1 MOL      0.333861
     22 O5          3.4890   -5.5400   -3.7150 o         1 MOL     -0.561167
     23 C9          0.8230   -5.3180   -1.8080 c3        1 MOL      0.000189
     24 C10         0.0410   -5.9330   -0.6350 c3        1 MOL      0.063554
     25 C11         0.5040   -6.0410   -3.1410 c3        1 MOL     -0.055940
     26 C12         0.1530   -7.4470   -0.4160 c3        1 MOL     -0.130265
     27 H8          2.1470   -3.7750   -0.2220 hn        1 MOL      0.102579
     28 H9          2.6760   -6.4220   -1.5610 h1        1 MOL      0.092943
     29 H10         0.4060   -4.3240   -1.9280 hc        1 MOL      0.052186
     30 H11        -1.0320   -5.7720   -0.7380 hc        1 MOL      0.008249
     31 H12         0.3320   -5.5020    0.3310 hc        1 MOL      0.008249
     32 H13         0.9000   -7.0560   -3.2000 hc        1 MOL      0.014334
     33 H14        -0.5740   -6.1670   -3.2670 hc        1 MOL      0.014334
     34 H15         0.8080   -5.5570   -4.0660 hc        1 MOL      0.014334
     35 H16        -0.5030   -7.8020    0.3730 hc        1 MOL      0.011467
     36 H17        -0.0950   -7.9970   -1.3310 hc        1 MOL      0.011467
     37 H18         1.1750   -7.6410   -0.0840 hc        1 MOL      0.011467
     38 N3          3.4300   -3.4790   -2.8620 n         1 MOL     -0.063480
     39 C13         4.0770   -2.7440   -3.8980 c3        1 MOL     -0.039846
     40 C14         5.3920   -2.0740   -3.4250 c         1 MOL      0.467092
     41 O6          6.2050   -1.5990   -4.2480 o         1 MOL     -0.582279
     42 C15         3.0520   -1.7010   -4.5460 c3        1 MOL     -0.210585
     43 C16         2.4520   -0.7920   -3.4700 c         1 MOL      0.681639
     44 O7          3.0090   -0.6870   -2.3460 o         1 MOL     -0.680234
     45 O8          1.3760   -0.1710   -3.7390 o         1 MOL     -0.680234
     46 H19         3.1330   -2.8750   -2.1110 hn        1 MOL      0.119875
     47 H20         4.4860   -3.4750   -4.5870 h1        1 MOL      0.083949
     48 H21         2.2080   -2.2360   -4.9630 hc        1 MOL      0.071281
     49 H22         3.5410   -1.1540   -5.3520 hc        1 MOL      0.071281
     50 N4          5.6950   -2.0270   -2.0920 n         1 MOL     -0.208775
     51 C17         6.8790   -1.4210   -1.5690 c3        1 MOL     -0.234282
     52 C18         7.1090    0.0950   -1.6120 c         1 MOL      0.616137
     53 O9          8.0840    0.5310   -1.0360 o         1 MOL     -0.620459
     54 H23         5.0430   -2.4430   -1.4390 hn        1 MOL      0.098001
     55 H24         7.7660   -1.8440   -2.0570 h1        1 MOL      0.112462
     56 H25         7.0060   -1.7400   -0.5360 h1        1 MOL      0.112462
     57 N5          6.1670    0.8720   -2.1220 n         1 MOL     -0.407470
     58 C19         6.2500    2.3010   -2.3230 c3        1 MOL      0.107393
     59 C20         6.7170    3.2350   -1.1770 c         1 MOL      0.458172
     60 O10         7.2240    4.3140   -1.4310 o         1 MOL     -0.602260
     61 C21         4.9040    2.8020   -2.8800 c3        1 MOL     -0.370939
     62 C22         3.6770    2.5280   -2.1060 c         1 MOL      0.855494
     63 O11         3.7390    1.8790   -1.0190 o         1 MOL     -0.719757
     64 O12         2.5640    3.0700   -2.4440 o         1 MOL     -0.719757
     65 H26         5.3060    0.5400   -2.5410 hn        1 MOL      0.311350
     66 H27         7.0560    2.4350   -3.0440 h1        1 MOL      0.047005
     67 H28         4.7400    2.2010   -3.7720 hc        1 MOL      0.089019
     68 H29         4.9580    3.8360   -3.2300 hc        1 MOL      0.089019
     69 N6          6.5250    2.8600    0.0670 n         1 MOL     -0.116144
     70 C23         6.7370    3.6120    1.2690 c3        1 MOL     -0.094605
     71 C24         5.4900    4.0370    1.9040 c         1 MOL      0.538627
     72 O13         5.5560    4.6960    2.9330 o         1 MOL     -0.594208
     73 H30         6.0360    1.9790    0.0740 hn        1 MOL      0.207453
     74 H31         7.4330    4.4370    1.1250 h1        1 MOL      0.072842
     75 H32         7.2590    2.9480    1.9490 h1        1 MOL      0.072842
     76 N7          4.2920    3.6390    1.4170 n         1 MOL     -0.414369
     77 C25         2.9540    4.1930    1.8520 c3        1 MOL      0.263140
     78 C26         1.9040    3.0590    2.0230 c         1 MOL      0.370064
     79 O14         2.1420    1.9640    1.5420 o         1 MOL     -0.538229
     80 C27         2.5080    5.3430    0.8750 c3        1 MOL     -0.224495
     81 C28         3.3320    6.6190    1.0490 c3        1 MOL     -0.121797
     82 C29         2.7620    7.8190    0.3280 c         1 MOL      0.658723
     83 N8          2.5490    7.8120   -1.0000 n         1 MOL     -0.826911
     84 O15         2.6750    8.8710    0.9750 o         1 MOL     -0.592694
     85 H33         4.2340    2.9950    0.6470 hn        1 MOL      0.229600
     86 H34         3.0680    4.5140    2.8940 h1        1 MOL      0.006111
     87 H35         1.4810    5.6030    1.1370 hc        1 MOL      0.082355
     88 H36         2.6380    4.9480   -0.1270 hc        1 MOL      0.082355
     89 H37         4.3340    6.4170    0.6570 hc        1 MOL      0.066035
     90 H38         3.4270    6.8600    2.1020 hc        1 MOL      0.066035
     91 H39         2.7570    7.0270   -1.5960 hn        1 MOL      0.370070
     92 H40         2.2720    8.6780   -1.4480 hn        1 MOL      0.370070
     93 N9          0.8180    3.3870    2.7100 n         1 MOL     -0.370714
     94 C30        -0.3880    2.4780    2.8180 c3        1 MOL     -0.157015
     95 C31        -1.5040    2.8320    1.8330 c         1 MOL      0.520770
     96 O16        -2.1920    3.8120    2.0860 o         1 MOL     -0.571935
     97 C32        -0.8790    2.1820    4.2580 c3        1 MOL      0.320296
     98 C33        -1.6280    0.8360    4.1070 c3        1 MOL     -0.363113
     99 C34         0.2630    2.1500    5.2520 c3        1 MOL     -0.363113
    100 H41         0.6650    4.2740    3.1610 hn        1 MOL      0.281847
    101 H42         0.1070    1.5510    2.5000 h1        1 MOL      0.209713
    102 H43        -1.5870    2.8840    4.7010 hc        1 MOL     -0.031566
    103 H44        -1.9720    0.5890    5.1220 hc        1 MOL      0.078058
    104 H45        -2.5080    0.8850    3.4630 hc        1 MOL      0.078058
    105 H46        -1.0210    0.0210    3.7150 hc        1 MOL      0.078058
    106 H47        -0.0590    1.7110    6.1950 hc        1 MOL      0.078058
    107 H48         1.1450    1.6290    4.8650 hc        1 MOL      0.078058
    108 H49         0.5980    3.1680    5.4340 hc        1 MOL      0.078058
    109 N10        -1.6050    2.0890    0.7230 n         1 MOL     -0.333883
    110 C35        -2.8310    2.3010   -0.1280 c3        1 MOL      0.119045
    111 C36        -4.1590    1.7260    0.5740 c         1 MOL      0.079243
    112 O17        -4.1000    0.8740    1.5050 o         1 MOL     -0.182109
    113 C37        -2.6060    1.6430   -1.4770 c3        1 MOL     -0.522971
    114 C38        -3.8140    1.5570   -2.3670 c         1 MOL      0.769487
    115 N11        -4.2190    2.6940   -2.8350 n         1 MOL     -0.705741
    116 O18        -4.3850    0.5470   -2.6590 o         1 MOL     -0.564344
    117 H50        -0.9310    1.3490    0.6300 hn        1 MOL      0.301332
    118 H51        -2.9700    3.3540   -0.3700 h1        1 MOL      0.074595
    119 H52        -2.1780    0.6610   -1.2750 hc        1 MOL      0.171300
    120 H53        -1.7900    2.1840   -1.9560 hc        1 MOL      0.171300
    121 H54        -3.7340    3.5590   -2.6320 hn        1 MOL      0.332783
    122 H55        -4.7090    2.7180   -3.7160 hn        1 MOL      0.332783
    123 N12        -5.3620    2.1520    0.2120 n         1 MOL     -0.044830
    124 C39        -6.5160    1.7220    0.9390 c3        1 MOL     -0.088006
    125 C40        -6.7390    0.2210    0.9430 c         1 MOL      0.421981
    126 O19        -7.1880   -0.3250    1.9170 o         1 MOL     -0.571168
    127 C41        -7.8100    2.4920    0.5590 c3        1 MOL     -0.069592
    128 C42        -7.9160    2.9360   -0.9060 ca        1 MOL     -0.042772
    129 C43        -7.3570    4.1340   -1.4690 ca        1 MOL     -0.105919
    130 C44        -8.4230    2.0030   -1.8690 ca        1 MOL     -0.105919
    131 C45        -7.4400    4.4190   -2.8820 ca        1 MOL     -0.265131
    132 C46        -8.4470    2.2390   -3.2930 ca        1 MOL     -0.265131
    133 C47        -7.9570    3.4830   -3.7820 ca        1 MOL      0.322598
    134 O20        -7.7200    3.6280   -5.0950 oh        1 MOL     -0.539089
    135 H56        -5.4930    2.7340   -0.6080 hn        1 MOL      0.100941
    136 H57        -6.1580    2.0260    1.9230 h1        1 MOL      0.084673
    137 H58        -7.9340    3.4280    1.1070 hc        1 MOL      0.068930
    138 H59        -8.6890    1.9640    0.9400 hc        1 MOL      0.068930
    139 H60        -6.8130    4.8670   -0.8870 ha        1 MOL      0.104522
    140 H61        -8.7600    1.0320   -1.5490 ha        1 MOL      0.104522
    141 H62        -6.9840    5.2930   -3.3190 ha        1 MOL      0.129396
    142 H63        -8.6740    1.4410   -3.9820 ha        1 MOL      0.129396
    143 H64        -8.1480    2.8740   -5.5010 ho        1 MOL      0.413234
    144 N13        -6.2970   -0.5290   -0.0950 n         1 MOL      0.155354
    145 C48        -6.4100   -2.0020   -0.1800 c3        1 MOL     -0.614028
    146 C49        -5.2790   -2.7730    0.6250 c         1 MOL      0.673104
    147 O21        -5.2290   -4.0230    0.6610 o         1 MOL     -0.569455
    148 C50        -6.3590   -2.4700   -1.7020 c3        1 MOL      0.175740
    149 C51        -7.2850   -1.7870   -2.7140 c3        1 MOL     -0.229101
    150 C52        -8.7700   -1.9270   -2.3760 c         1 MOL      0.719561
    151 O22        -9.2200   -2.9270   -1.7470 o         1 MOL     -0.715383
    152 O23        -9.5880   -1.1300   -2.8370 o         1 MOL     -0.715383
    153 H65        -5.8390   -0.0910   -0.8840 hn        1 MOL      0.193829
    154 H66        -7.3170   -2.2860    0.3600 h1        1 MOL      0.229539
    155 H67        -6.5110   -3.5420   -1.8510 hc        1 MOL      0.004098
    156 H68        -5.3230   -2.4070   -2.0340 hc        1 MOL      0.004098
    157 H69        -7.0550   -2.2100   -3.6860 hc        1 MOL      0.031918
    158 H70        -7.1080   -0.7190   -2.7870 hc        1 MOL      0.031918
    159 N14        -4.4460   -2.0240    1.3170 n         1 MOL     -0.316930
    160 C53        -3.6090   -2.5010    2.4290 c3        1 MOL     -0.075933
    161 C54        -4.1510   -2.1480    3.8540 c         1 MOL      0.418623
    162 O24        -3.8400   -2.8440    4.8200 o         1 MOL     -0.562283
    163 C55        -2.1620   -2.0390    2.3460 c3        1 MOL      0.127222
    164 C56        -1.3800   -2.5030    1.1490 c3        1 MOL      0.033889
    165 C57        -0.0290   -1.7190    0.7750 c         1 MOL      0.635826
    166 O25         0.8280   -2.3270    0.0820 o         1 MOL     -0.720390
    167 O26         0.1710   -0.5580    1.1690 o         1 MOL     -0.720390
    168 H71        -4.4290   -1.0120    1.2490 hn        1 MOL      0.053813
    169 H72        -3.6760   -3.5950    2.4150 h1        1 MOL      0.075426
    170 H73        -1.6270   -2.3690    3.2320 hc        1 MOL      0.009138
    171 H74        -2.2680   -0.9460    2.3070 hc        1 MOL      0.009138
    172 H75        -1.9830   -2.5040    0.2390 hc        1 MOL     -0.022483
    173 H76        -1.1020   -3.5550    1.2300 hc        1 MOL     -0.022483
    174 N15        -4.8350   -1.0230    4.0100 n         1 MOL     -0.037998
    175 C58        -5.2110   -0.4880    5.2930 c3        1 MOL     -0.210726
    176 H77        -6.2310   -0.7900    5.5280 h1        1 MOL      0.072990
    177 H78        -4.5350   -0.8700    6.0590 h1        1 MOL      0.072990
    178 H79        -5.1520    0.6000    5.2650 h1        1 MOL      0.072990
    179 H80        -5.0340   -0.4420    3.2080 hn        1 MOL      0.131920
    180 Ca1         2.5250   -0.1820    0.0680 Ca        1 MOL      1.667140
    181 O27         2.5150   -0.8980    2.6420 oh        1 MOL     -0.827961
    182 H81         3.1230   -0.7350    3.3680 ho        1 MOL      0.392465
    183 H82         1.6640   -0.9830    3.0780 ho        1 MOL      0.392465
    184 O28         4.9690    0.4630    1.1240 oh        1 MOL     -0.827961
    185 H83         5.3190   -0.3890    1.3850 ho        1 MOL      0.392465
    186 H84         4.6350    0.8490    1.9410 ho        1 MOL      0.392465
    187 O29         0.8880    1.3860   -1.4140 oh        1 MOL     -0.827961
    188 H85         0.8710    0.7380   -2.1240 ho        1 MOL      0.392465
    189 H86         1.5910    1.9840   -1.6630 ho        1 MOL      0.392465
@<TRIPOS>BOND
     1    1    2 1   
     2    1    4 1   
     3    1    5 1   
     4    1    6 1   
     5    2    3 2   
     6    2    7 1   
     7    7    8 1   
     8    7   15 1   
     9    8    9 1   
    10    8   11 1   
    11    8   16 1   
    12    9   10 2   
    13    9   19 1   
    14   11   12 1   
    15   11   17 1   
    16   11   18 1   
    17   12   13 1   
    18   12   14 1   
    19   19   20 1   
    20   19   27 1   
    21   20   21 1   
    22   20   23 1   
    23   20   28 1   
    24   21   22 2   
    25   21   38 1   
    26   23   24 1   
    27   23   25 1   
    28   23   29 1   
    29   24   26 1   
    30   24   30 1   
    31   24   31 1   
    32   25   32 1   
    33   25   33 1   
    34   25   34 1   
    35   26   35 1   
    36   26   36 1   
    37   26   37 1   
    38   38   39 1   
    39   38   46 1   
    40   39   40 1   
    41   39   42 1   
    42   39   47 1   
    43   40   41 2   
    44   40   50 1   
    45   42   43 1   
    46   42   48 1   
    47   42   49 1   
    48   43   44 1   
    49   43   45 1   
    50   50   51 1   
    51   50   54 1   
    52   51   52 1   
    53   51   55 1   
    54   51   56 1   
    55   52   53 2   
    56   52   57 1   
    57   57   58 1   
    58   57   65 1   
    59   58   59 1   
    60   58   61 1   
    61   58   66 1   
    62   59   60 2   
    63   59   69 1   
    64   61   62 1   
    65   61   67 1   
    66   61   68 1   
    67   62   63 1   
    68   62   64 1   
    69   69   70 1   
    70   69   73 1   
    71   70   71 1   
    72   70   74 1   
    73   70   75 1   
    74   71   72 2   
    75   71   76 1   
    76   76   77 1   
    77   76   85 1   
    78   77   78 1   
    79   77   80 1   
    80   77   86 1   
    81   78   79 2   
    82   78   93 1   
    83   80   81 1   
    84   80   87 1   
    85   80   88 1   
    86   81   82 1   
    87   81   89 1   
    88   81   90 1   
    89   82   83 1   
    90   82   84 2   
    91   83   91 1   
    92   83   92 1   
    93   93   94 1   
    94   93  100 1   
    95   94   95 1   
    96   94   97 1   
    97   94  101 1   
    98   95   96 2   
    99   95  109 1   
   100   97   98 1   
   101   97   99 1   
   102   97  102 1   
   103   98  103 1   
   104   98  104 1   
   105   98  105 1   
   106   99  106 1   
   107   99  107 1   
   108   99  108 1   
   109  109  110 1   
   110  109  117 1   
   111  110  111 1   
   112  110  113 1   
   113  110  118 1   
   114  111  112 2   
   115  111  123 1   
   116  113  114 1   
   117  113  119 1   
   118  113  120 1   
   119  114  115 1   
   120  114  116 2   
   121  115  121 1   
   122  115  122 1   
   123  123  124 1   
   124  123  135 1   
   125  124  125 1   
   126  124  127 1   
   127  124  136 1   
   128  125  126 2   
   129  125  144 1   
   130  127  128 1   
   131  127  137 1   
   132  127  138 1   
   133  128  129 ar  
   134  128  130 ar  
   135  129  131 ar  
   136  129  139 1   
   137  130  132 ar  
   138  130  140 1   
   139  131  133 ar  
   140  131  141 1   
   141  132  133 ar  
   142  132  142 1   
   143  133  134 1   
   144  134  143 1   
   145  144  145 1   
   146  144  153 1   
   147  145  146 1   
   148  145  148 1   
   149  145  154 1   
   150  146  147 2   
   151  146  159 1   
   152  148  149 1   
   153  148  155 1   
   154  148  156 1   
   155  149  150 1   
   156  149  157 1   
   157  149  158 1   
   158  150  151 1   
   159  150  152 1   
   160  159  160 1   
   161  159  168 1   
   162  160  161 1   
   163  160  163 1   
   164  160  169 1   
   165  161  162 2   
   166  161  174 1   
   167  163  164 1   
   168  163  170 1   
   169  163  171 1   
   170  164  165 1   
   171  164  172 1   
   172  164  173 1   
   173  165  166 1   
   174  165  167 1   
   175  174  175 1   
   176  174  179 1   
   177  175  176 1   
   178  175  177 1   
   179  175  178 1   
   180  181  182 1   
   181  181  183 1   
   182  184  185 1   
   183  184  186 1   
   184  187  188 1   
   185  187  189 1   
@<TRIPOS>SUBSTRUCTURE
     1 MOL         1 TEMP              0 ****  ****    0 ROOT
