@<TRIPOS>MOLECULE
MOL
  175   173     1     0     0
SMALL
resp


@<TRIPOS>ATOM
      1 C1          0.5100    4.1760    5.2620 c3        1 MOL     -0.273510
      2 C2         -0.1580    4.0240    3.8550 c         1 MOL      0.664910
      3 O1          0.5290    4.0830    2.7900 o         1 MOL     -0.549516
      4 H1          1.5470    4.4890    5.1400 hc        1 MOL      0.072208
      5 H2         -0.0290    4.9260    5.8410 hc        1 MOL      0.072208
      6 H3          0.4780    3.2210    5.7850 hc        1 MOL      0.072208
      7 N1         -1.4960    3.7140    3.7620 n         1 MOL     -0.679859
      8 C3         -2.1210    3.4110    2.5110 c3        1 MOL      0.123068
      9 C4         -2.1580    4.5350    1.5540 c         1 MOL      0.758596
     10 O2         -2.4840    5.6550    1.9940 o         1 MOL     -0.624666
     11 C5         -3.5640    2.9690    2.8350 c3        1 MOL     -0.291513
     12 C6         -4.2940    2.4710    1.6280 c         1 MOL      0.607845
     13 O3         -3.7270    1.9150    0.6410 o         1 MOL     -0.628767
     14 O4         -5.5260    2.7360    1.5200 o         1 MOL     -0.628767
     15 H4         -2.0260    3.6860    4.6140 hn        1 MOL      0.337700
     16 H5         -1.5240    2.5990    2.1060 h1        1 MOL      0.106156
     17 H6         -4.1520    3.7510    3.3190 hc        1 MOL      0.074190
     18 H7         -3.5180    2.0720    3.4570 hc        1 MOL      0.074190
     19 N2         -1.8980    4.3810    0.3020 n         1 MOL     -0.618057
     20 C7         -2.3500    5.2830   -0.7430 c3        1 MOL      0.310814
     21 C8         -3.3340    4.7580   -1.7960 c         1 MOL      0.568088
     22 O5         -3.4900    5.4970   -2.7570 o         1 MOL     -0.618328
     23 C9         -1.1120    6.0510   -1.3740 c3        1 MOL     -0.356648
     24 H8         -1.6140    3.4830   -0.0730 hn        1 MOL      0.352319
     25 H9         -3.0000    5.9980   -0.2400 h1        1 MOL      0.000280
     26 H10        -0.3210    6.0820   -0.6270 hc        1 MOL      0.086039
     27 H11        -0.7190    5.4450   -2.1980 hc        1 MOL      0.086039
     28 H12        -1.1720    7.0920   -1.6830 hc        1 MOL      0.086039
     29 N3         -3.9740    3.6670   -1.6620 n         1 MOL     -0.479362
     30 C10        -4.8620    3.1870   -2.7680 c3        1 MOL      0.104154
     31 C11        -6.0960    2.4460   -2.4390 c         1 MOL      0.426233
     32 O6         -6.7250    1.9160   -3.3160 o         1 MOL     -0.554667
     33 C12        -3.9870    2.4370   -3.7220 c3        1 MOL     -0.203427
     34 C13        -3.2200    1.2870   -3.0480 c         1 MOL      0.715673
     35 O7         -1.9640    1.1700   -2.9640 o         1 MOL     -0.713226
     36 O8         -3.8160    0.6020   -2.1550 o         1 MOL     -0.713226
     37 H13        -3.7280    3.0320   -0.9140 hn        1 MOL      0.278008
     38 H14        -5.3250    4.0450   -3.2470 h1        1 MOL      0.092115
     39 H15        -3.2810    3.1820   -4.0850 hc        1 MOL      0.053312
     40 H16        -4.4700    1.9710   -4.5770 hc        1 MOL      0.053312
     41 N4         -6.3580    2.1990   -1.1360 n         1 MOL     -0.203943
     42 C14        -7.5340    1.4360   -0.7330 c3        1 MOL     -0.359672
     43 C15        -7.3870   -0.0430   -0.8570 c         1 MOL      0.591593
     44 O9         -8.3530   -0.7570   -0.4920 o         1 MOL     -0.632274
     45 H17        -5.7280    2.5570   -0.4300 hn        1 MOL      0.176272
     46 H18        -8.3210    1.8570   -1.3720 h1        1 MOL      0.152581
     47 H19        -7.6730    1.6920    0.3110 h1        1 MOL      0.152581
     48 N5         -6.2320   -0.5810   -1.3430 n         1 MOL     -0.203564
     49 C16        -6.2470   -1.9080   -2.0120 c3        1 MOL      0.001742
     50 C17        -6.4110   -3.1240   -1.0900 c         1 MOL      0.454345
     51 O10        -6.4860   -4.2260   -1.6010 o         1 MOL     -0.532873
     52 C18        -5.0960   -2.0810   -3.0630 c3        1 MOL     -0.098996
     53 C19        -3.7750   -2.2350   -2.3720 c         1 MOL      0.496280
     54 N6         -2.7370   -2.3600   -3.1360 n         1 MOL     -0.551380
     55 O11        -3.5840   -2.0920   -1.1460 o         1 MOL     -0.324273
     56 H20        -5.4030   -0.0300   -1.4590 hn        1 MOL      0.168602
     57 H21        -7.1120   -2.0350   -2.6690 h1        1 MOL      0.060614
     58 H22        -5.0540   -1.3090   -3.8270 hc        1 MOL      0.046025
     59 H23        -5.2160   -3.0310   -3.5890 hc        1 MOL      0.046025
     60 H24        -2.8900   -2.5820   -4.1140 hn        1 MOL      0.297478
     61 H25        -1.8240   -2.3580   -2.6970 hn        1 MOL      0.297478
     62 N7         -6.4630   -2.8990    0.2560 n         1 MOL     -0.203703
     63 C20        -6.4610   -3.9300    1.3080 c3        1 MOL     -0.259024
     64 C21        -5.1220   -4.5490    1.6760 c         1 MOL      0.615426
     65 O12        -5.0370   -5.5580    2.3240 o         1 MOL     -0.592076
     66 H26        -6.3000   -1.9230    0.4640 hn        1 MOL      0.233998
     67 H27        -7.1600   -4.7220    1.0150 h1        1 MOL      0.109110
     68 H28        -6.8520   -3.4230    2.1810 h1        1 MOL      0.109110
     69 N8         -4.0190   -3.9010    1.3740 n         1 MOL     -0.200691
     70 C22        -2.5570   -4.3960    1.6350 c3        1 MOL     -0.473021
     71 C23        -1.5660   -3.2600    1.6280 c         1 MOL      0.783168
     72 O13        -1.6260   -2.2630    0.9370 o         1 MOL     -0.587901
     73 C24        -2.1000   -5.3480    0.5640 c3        1 MOL      0.633344
     74 C25        -2.7250   -6.7290    0.7680 c3        1 MOL     -0.692773
     75 O14        -2.4490   -4.9440   -0.7550 oh        1 MOL     -0.584354
     76 H29        -4.0490   -3.1050    0.7600 hn        1 MOL      0.095858
     77 H30        -2.4790   -4.8910    2.6050 h1        1 MOL      0.181164
     78 H31        -1.0230   -5.4590    0.4290 h1        1 MOL     -0.002662
     79 H32        -2.6860   -4.0120   -0.7480 ho        1 MOL      0.257380
     80 H33        -2.1900   -7.4600    0.1590 hc        1 MOL      0.170557
     81 H34        -2.7160   -7.0000    1.8260 hc        1 MOL      0.170557
     82 H35        -3.7710   -6.7040    0.4660 hc        1 MOL      0.170557
     83 N9         -0.4470   -3.5860    2.3050 n         1 MOL     -0.743245
     84 C26         0.6860   -2.7170    2.2500 c3        1 MOL      0.461752
     85 C27         1.3900   -2.9620    0.9530 c         1 MOL      0.425620
     86 O15         1.6500   -4.1470    0.6530 o         1 MOL     -0.573302
     87 C28         1.6270   -2.7590    3.4930 c3        1 MOL     -0.055797
     88 C29         1.3520   -1.5160    4.4500 c3        1 MOL      0.046971
     89 C30         3.1260   -2.7000    3.1940 c3        1 MOL     -0.214875
     90 C31         1.7730   -1.7110    5.9500 c3        1 MOL     -0.113661
     91 H36        -0.5050   -4.4190    2.8800 hn        1 MOL      0.301348
     92 H37         0.2790   -1.7080    2.1670 h1        1 MOL     -0.125465
     93 H38         1.4320   -3.7160    3.9840 hc        1 MOL      0.036919
     94 H39         0.3010   -1.2470    4.5010 hc        1 MOL     -0.010831
     95 H40         1.8390   -0.6310    4.0640 hc        1 MOL     -0.010831
     96 H41         3.2120   -1.7580    2.6450 hc        1 MOL      0.046325
     97 H42         3.7330   -2.6990    4.0950 hc        1 MOL      0.046325
     98 H43         3.4470   -3.4720    2.5010 hc        1 MOL      0.046325
     99 H44         2.8070   -2.0280    6.0330 hc        1 MOL      0.024111
    100 H45         1.7850   -0.7760    6.5000 hc        1 MOL      0.024111
    101 H46         1.0990   -2.3970    6.4710 hc        1 MOL      0.024111
    102 N10         1.6650   -1.8700    0.2400 n         1 MOL     -0.200086
    103 C32         2.5940   -1.8430   -0.9650 c3        1 MOL      0.042232
    104 C33         4.0360   -1.4660   -0.6340 c         1 MOL      0.441119
    105 O16         4.2950   -0.8770    0.4100 o         1 MOL     -0.340221
    106 C34         1.9070   -1.0010   -2.0920 c3        1 MOL     -0.264865
    107 C35         0.4590   -1.5390   -2.4220 c         1 MOL      0.725657
    108 O17        -0.5280   -1.1570   -1.7450 o         1 MOL     -0.667965
    109 O18         0.2180   -2.2280   -3.4370 o         1 MOL     -0.667965
    110 H47         1.2560   -0.9870    0.5100 hn        1 MOL      0.229347
    111 H48         2.5980   -2.8970   -1.2650 h1        1 MOL      0.044167
    112 H49         2.4030   -1.1730   -3.0600 hc        1 MOL      0.053591
    113 H50         1.9570    0.0790   -1.9400 hc        1 MOL      0.053591
    114 N11         4.9780   -1.7970   -1.5270 n         1 MOL     -0.586368
    115 C36         6.4300   -1.5420   -1.3070 c3        1 MOL      0.271110
    116 C37         6.7060   -0.0400   -1.0350 c         1 MOL      0.468628
    117 O19         7.2530    0.2650   -0.0060 o         1 MOL     -0.534045
    118 C38         7.3120   -2.0830   -2.4340 c3        1 MOL     -0.150345
    119 C39         8.8160   -2.0100   -2.2200 ca        1 MOL      0.066666
    120 C40         9.4040   -2.2650   -0.9720 ca        1 MOL     -0.161966
    121 C41         9.7470   -1.6210   -3.2250 ca        1 MOL     -0.161966
    122 C42        10.7580   -2.3060   -0.7790 ca        1 MOL     -0.079535
    123 C43        11.0900   -1.6010   -3.0610 ca        1 MOL     -0.079535
    124 C44        11.6110   -1.9940   -1.8150 ca        1 MOL     -0.122893
    125 H51         4.6030   -2.3180   -2.3050 hn        1 MOL      0.333129
    126 H52         6.7010   -1.9760   -0.3520 h1        1 MOL      0.054502
    127 H53         7.1750   -1.5040   -3.3460 hc        1 MOL      0.051750
    128 H54         6.9870   -3.1100   -2.5510 hc        1 MOL      0.051750
    129 H55         8.8230   -2.4310   -0.0720 ha        1 MOL      0.109935
    130 H56         9.3170   -1.2400   -4.1400 ha        1 MOL      0.109935
    131 H57        11.1680   -2.6760    0.1380 ha        1 MOL      0.099090
    132 H58        11.7210   -1.3880   -3.9070 ha        1 MOL      0.099090
    133 H59        12.6760   -2.0920   -1.7370 ha        1 MOL      0.092118
    134 N12         6.3810    0.9480   -1.9040 n         1 MOL     -0.194001
    135 C45         6.5840    2.4130   -1.5620 c3        1 MOL     -0.041773
    136 C46         5.9180    2.8060   -0.2600 c         1 MOL      0.475105
    137 O20         6.2460    3.7780    0.3000 o         1 MOL     -0.541628
    138 C47         6.1000    3.1050   -2.7840 c3        1 MOL     -0.181547
    139 C48         5.0360    2.1970   -3.4430 c3        1 MOL      0.063672
    140 C49         5.6410    0.8700   -3.1920 c3        1 MOL     -0.065822
    141 H60         7.6530    2.5560   -1.4550 h1        1 MOL      0.091501
    142 H61         5.6640    4.0780   -2.6010 hc        1 MOL      0.078492
    143 H62         6.9360    3.2400   -3.4840 hc        1 MOL      0.078492
    144 H63         4.1230    2.2440   -2.8550 hc        1 MOL      0.020349
    145 H64         4.9150    2.4330   -4.4970 hc        1 MOL      0.020349
    146 H65         4.8420    0.1470   -3.0180 h1        1 MOL      0.039175
    147 H66         6.2570    0.6730   -4.0750 h1        1 MOL      0.039175
    148 N13         4.9930    2.0430    0.2920 n         1 MOL     -0.191967
    149 C50         4.3090    2.3160    1.5760 c3        1 MOL     -0.062496
    150 C51         5.0910    1.7810    2.7800 c         1 MOL      0.457370
    151 O21         5.2880    2.4520    3.7810 o         1 MOL     -0.560237
    152 C52         2.8350    1.7940    1.6020 c3        1 MOL      0.008313
    153 C53         1.9390    2.2540    0.4030 c3        1 MOL     -0.346029
    154 C54         0.5590    1.5270    0.4470 c         1 MOL      0.662511
    155 O22        -0.4250    2.0870   -0.1260 o         1 MOL     -0.694691
    156 O23         0.2500    0.3740    0.9130 o         1 MOL     -0.694691
    157 H67         4.8090    1.1760   -0.2060 hn        1 MOL      0.237615
    158 H68         4.1670    3.3660    1.8220 h1        1 MOL      0.098208
    159 H69         2.4140    2.0820    2.5610 hc        1 MOL      0.036459
    160 H70         2.9320    0.7170    1.4930 hc        1 MOL      0.036459
    161 H71         2.3600    1.8560   -0.5160 hc        1 MOL      0.131809
    162 H72         1.8200    3.3310    0.4940 hc        1 MOL      0.131809
    163 N14         5.6570    0.6020    2.5920 n         1 MOL     -0.039642
    164 C55         6.5970   -0.0830    3.5050 c3        1 MOL     -0.330713
    165 H73         7.5880    0.3620    3.4070 h1        1 MOL      0.114587
    166 H74         6.2510    0.0250    4.5320 h1        1 MOL      0.114587
    167 H75         6.6480   -1.1410    3.2470 h1        1 MOL      0.114587
    168 H76         5.3320    0.0390    1.8190 hn        1 MOL      0.058658
    169 Ca1        -2.1490    0.0920   -0.2760 Ca        1 MOL      1.649322
    170 O24        -1.8750    0.1270    2.6220 oh        1 MOL     -0.839115
    171 H77        -1.7590    0.3200    3.5550 ho        1 MOL      0.409617
    172 H78        -0.9990    0.2230    2.2500 ho        1 MOL      0.409617
    173 O25        -4.2070   -0.8780    1.4570 oh        1 MOL     -0.839115
    174 H79        -3.4860   -0.6960    2.0720 ho        1 MOL      0.409617
    175 H80        -4.9940   -0.6280    1.9280 ho        1 MOL      0.409617
@<TRIPOS>BOND
     1    1    2 1   
     2    1    4 1   
     3    1    5 1   
     4    1    6 1   
     5    2    3 2   
     6    2    7 1   
     7    7    8 1   
     8    7   15 1   
     9    8    9 1   
    10    8   11 1   
    11    8   16 1   
    12    9   10 2   
    13    9   19 1   
    14   11   12 1   
    15   11   17 1   
    16   11   18 1   
    17   12   13 1   
    18   12   14 1   
    19   19   20 1   
    20   19   24 1   
    21   20   21 1   
    22   20   23 1   
    23   20   25 1   
    24   21   22 2   
    25   21   29 1   
    26   23   26 1   
    27   23   27 1   
    28   23   28 1   
    29   29   30 1   
    30   29   37 1   
    31   30   31 1   
    32   30   33 1   
    33   30   38 1   
    34   31   32 2   
    35   31   41 1   
    36   33   34 1   
    37   33   39 1   
    38   33   40 1   
    39   34   35 1   
    40   34   36 1   
    41   41   42 1   
    42   41   45 1   
    43   42   43 1   
    44   42   46 1   
    45   42   47 1   
    46   43   44 2   
    47   43   48 1   
    48   48   49 1   
    49   48   56 1   
    50   49   50 1   
    51   49   52 1   
    52   49   57 1   
    53   50   51 2   
    54   50   62 1   
    55   52   53 1   
    56   52   58 1   
    57   52   59 1   
    58   53   54 1   
    59   53   55 2   
    60   54   60 1   
    61   54   61 1   
    62   62   63 1   
    63   62   66 1   
    64   63   64 1   
    65   63   67 1   
    66   63   68 1   
    67   64   65 2   
    68   64   69 1   
    69   69   70 1   
    70   69   76 1   
    71   70   71 1   
    72   70   73 1   
    73   70   77 1   
    74   71   72 2   
    75   71   83 1   
    76   73   74 1   
    77   73   75 1   
    78   73   78 1   
    79   74   80 1   
    80   74   81 1   
    81   74   82 1   
    82   75   79 1   
    83   83   84 1   
    84   83   91 1   
    85   84   85 1   
    86   84   87 1   
    87   84   92 1   
    88   85   86 2   
    89   85  102 1   
    90   87   88 1   
    91   87   89 1   
    92   87   93 1   
    93   88   90 1   
    94   88   94 1   
    95   88   95 1   
    96   89   96 1   
    97   89   97 1   
    98   89   98 1   
    99   90   99 1   
   100   90  100 1   
   101   90  101 1   
   102  102  103 1   
   103  102  110 1   
   104  103  104 1   
   105  103  106 1   
   106  103  111 1   
   107  104  105 2   
   108  104  114 1   
   109  106  107 1   
   110  106  112 1   
   111  106  113 1   
   112  107  108 1   
   113  107  109 1   
   114  114  115 1   
   115  114  125 1   
   116  115  116 1   
   117  115  118 1   
   118  115  126 1   
   119  116  117 2   
   120  116  134 1   
   121  118  119 1   
   122  118  127 1   
   123  118  128 1   
   124  119  120 ar  
   125  119  121 ar  
   126  120  122 ar  
   127  120  129 1   
   128  121  123 ar  
   129  121  130 1   
   130  122  124 ar  
   131  122  131 1   
   132  123  124 ar  
   133  123  132 1   
   134  124  133 1   
   135  134  135 1   
   136  134  140 1   
   137  135  136 1   
   138  135  138 1   
   139  135  141 1   
   140  136  137 2   
   141  136  148 1   
   142  138  139 1   
   143  138  142 1   
   144  138  143 1   
   145  139  140 1   
   146  139  144 1   
   147  139  145 1   
   148  140  146 1   
   149  140  147 1   
   150  148  149 1   
   151  148  157 1   
   152  149  150 1   
   153  149  152 1   
   154  149  158 1   
   155  150  151 2   
   156  150  163 1   
   157  152  153 1   
   158  152  159 1   
   159  152  160 1   
   160  153  154 1   
   161  153  161 1   
   162  153  162 1   
   163  154  155 1   
   164  154  156 1   
   165  163  164 1   
   166  163  168 1   
   167  164  165 1   
   168  164  166 1   
   169  164  167 1   
   170  170  171 1   
   171  170  172 1   
   172  173  174 1   
   173  173  175 1   
@<TRIPOS>SUBSTRUCTURE
     1 MOL         1 TEMP              0 ****  ****    0 ROOT
