@<TRIPOS>MOLECULE
MOL
  186   183     1     0     0
SMALL
resp


@<TRIPOS>ATOM
      1 C1          0.5710   -0.7350    6.3580 c3        1 MOL     -0.349380
      2 C2          1.0600   -1.1670    4.9800 c         1 MOL      0.670040
      3 O1          0.2960   -1.9310    4.4090 o         1 MOL     -0.561229
      4 H1          1.2170    0.0560    6.7400 hc        1 MOL      0.083740
      5 H2         -0.4510   -0.3640    6.2810 hc        1 MOL      0.083740
      6 H3          0.6000   -1.5870    7.0370 hc        1 MOL      0.083740
      7 N1          2.1760   -0.7270    4.4360 n         1 MOL     -0.596733
      8 C3          2.6510   -1.0920    3.0260 c3        1 MOL      0.425462
      9 C4          3.1720   -2.5750    2.8770 c         1 MOL      0.291047
     10 O2          4.2310   -2.9730    3.4120 o         1 MOL     -0.525483
     11 C5          3.7840   -0.1360    2.8000 c3        1 MOL     -0.375896
     12 C6          4.6020   -0.2830    1.4840 c         1 MOL      0.863663
     13 O3          3.9820   -0.3860    0.3760 o         1 MOL     -0.675113
     14 O4          5.8690   -0.3180    1.4670 o         1 MOL     -0.675113
     15 H4          2.7850   -0.1880    5.0290 hn        1 MOL      0.320214
     16 H5          1.8650   -0.9010    2.3010 h1        1 MOL     -0.042954
     17 H6          4.4530   -0.3120    3.6440 hc        1 MOL      0.046006
     18 H7          3.4720    0.9070    2.8550 hc        1 MOL      0.046006
     19 N2          2.5380   -3.3770    2.0030 n         1 MOL      0.032507
     20 C7          2.7610   -4.8550    1.9390 c3        1 MOL     -0.344363
     21 C8          3.6750   -5.2720    0.6950 c         1 MOL      0.418867
     22 O5          4.1170   -6.4640    0.7070 o         1 MOL     -0.571391
     23 C9          1.4370   -5.6130    2.0330 c3        1 MOL      0.382443
     24 C10         0.5430   -5.2550    0.8520 c3        1 MOL     -0.195925
     25 C11         0.8700   -5.3700    3.4130 c3        1 MOL     -0.204125
     26 C12        -0.8690   -5.7290    0.8720 c3        1 MOL     -0.240265
     27 H8          1.8180   -2.9790    1.4310 hn        1 MOL      0.026441
     28 H9          3.3110   -5.0840    2.8420 h1        1 MOL      0.151482
     29 H10         1.5860   -6.6890    2.0190 hc        1 MOL     -0.053244
     30 H11         1.0190   -5.5870   -0.0690 hc        1 MOL      0.110440
     31 H12         0.4960   -4.1630    0.8490 hc        1 MOL      0.110440
     32 H13        -0.0700   -5.9270    3.4310 hc        1 MOL      0.032249
     33 H14         1.4870   -5.8470    4.1830 hc        1 MOL      0.032249
     34 H15         0.5590   -4.3430    3.5850 hc        1 MOL      0.032249
     35 H16        -1.4050   -5.4470   -0.0320 hc        1 MOL      0.062832
     36 H17        -0.9080   -6.7680    1.2040 hc        1 MOL      0.062832
     37 H18        -1.3330   -5.2830    1.7540 hc        1 MOL      0.062832
     38 N3          3.8700   -4.3410   -0.2570 n         1 MOL     -0.178322
     39 C13         4.6500   -4.4920   -1.4720 c3        1 MOL      0.067823
     40 C14         5.9980   -3.6290   -1.4110 c         1 MOL      0.406566
     41 O6          6.9010   -4.0780   -2.1130 o         1 MOL     -0.565915
     42 C15         3.8090   -4.2810   -2.7440 c3        1 MOL     -0.258009
     43 C16         2.9260   -3.0430   -2.8060 c         1 MOL      0.792548
     44 O7          2.8550   -2.3080   -1.8210 o         1 MOL     -0.705427
     45 O8          2.3710   -2.7520   -3.8690 o         1 MOL     -0.705427
     46 H19         3.2130   -3.5870   -0.0910 hn        1 MOL      0.129508
     47 H20         4.8230   -5.5680   -1.4930 h1        1 MOL      0.068441
     48 H21         3.1840   -5.1590   -2.9110 hc        1 MOL      0.064227
     49 H22         4.4880   -4.2220   -3.5990 hc        1 MOL      0.064227
     50 N4          6.1820   -2.5980   -0.6240 n         1 MOL     -0.082640
     51 C17         7.5460   -2.0880   -0.3280 c3        1 MOL     -0.332150
     52 C18         7.9290   -0.8050   -0.9710 c         1 MOL      0.659826
     53 O9          9.1160   -0.4900   -1.0360 o         1 MOL     -0.630113
     54 H23         5.4080   -2.2840   -0.0510 hn        1 MOL      0.156584
     55 H24         8.2870   -2.7430   -0.7960 h1        1 MOL      0.135138
     56 H25         7.5880   -1.9940    0.7600 h1        1 MOL      0.135138
     57 N5          6.9190   -0.0340   -1.4010 n         1 MOL     -0.295127
     58 C19         7.0570    1.2380   -2.0930 c3        1 MOL      0.084421
     59 C20         6.9170    2.4070   -1.0980 c         1 MOL      0.396534
     60 O10         7.2520    3.5170   -1.4560 o         1 MOL     -0.564141
     61 C21         6.0800    1.4230   -3.2310 c3        1 MOL     -0.208296
     62 C22         4.5940    1.1140   -2.8010 c         1 MOL      0.612476
     63 O11         3.8770    0.2570   -3.3860 o         1 MOL     -0.641344
     64 O12         4.0870    1.8100   -1.8450 o         1 MOL     -0.641344
     65 H26         6.0010   -0.4010   -1.1910 hn        1 MOL      0.146049
     66 H27         8.0820    1.3040   -2.4690 h1        1 MOL      0.078406
     67 H28         6.4740    0.6650   -3.9120 hc        1 MOL      0.054239
     68 H29         6.2880    2.3920   -3.6950 hc        1 MOL      0.054239
     69 N6          6.6620    2.1900    0.1610 n         1 MOL     -0.125702
     70 C23         6.6130    3.2600    1.1640 c3        1 MOL     -0.192904
     71 C24         5.4190    4.1820    1.0750 c         1 MOL      0.486791
     72 O13         5.4970    5.2670    1.6810 o         1 MOL     -0.576972
     73 H30         6.3460    1.3090    0.5320 hn        1 MOL      0.136563
     74 H31         7.5710    3.7840    1.1650 h1        1 MOL      0.101091
     75 H32         6.4200    2.7620    2.1040 h1        1 MOL      0.101091
     76 N7          4.3790    3.6780    0.3970 n         1 MOL     -0.083552
     77 C25         3.0590    4.2810    0.2870 c3        1 MOL     -0.045990
     78 C26         1.8420    3.3660    0.6140 c         1 MOL      0.425498
     79 O14         1.9300    2.1250    0.4770 o         1 MOL     -0.617155
     80 C27         2.7250    5.0360   -1.0220 c3        1 MOL      0.141491
     81 C28         3.7290    6.0340   -1.4910 c3        1 MOL     -0.311239
     82 C29         3.8610    7.2730   -0.7300 c         1 MOL      0.692227
     83 N8          4.8410    7.4470    0.0720 n         1 MOL     -0.774352
     84 O15         3.0250    8.1370   -0.7900 o         1 MOL     -0.625082
     85 H33         4.4120    2.7870   -0.0760 hn        1 MOL      0.105246
     86 H34         3.1520    5.0360    1.0680 h1        1 MOL      0.047689
     87 H35         1.8000    5.6140   -0.9420 hc        1 MOL      0.010395
     88 H36         2.5270    4.3260   -1.8250 hc        1 MOL      0.010395
     89 H37         3.3920    6.2670   -2.4950 hc        1 MOL      0.082917
     90 H38         4.6840    5.5130   -1.5300 hc        1 MOL      0.082917
     91 H39         5.4480    6.7000    0.3990 hn        1 MOL      0.350492
     92 H40         4.9870    8.2920    0.6020 hn        1 MOL      0.350492
     93 N9          0.7330    3.8620    1.1440 n         1 MOL     -0.385532
     94 C30        -0.4790    3.1100    1.4810 c3        1 MOL      0.101560
     95 C31        -1.5940    3.3620    0.4310 c         1 MOL      0.309101
     96 O16        -2.2390    4.4150    0.5710 o         1 MOL     -0.555663
     97 C32        -0.9630    3.1740    2.9600 c3        1 MOL      0.282251
     98 C33        -1.6810    1.8760    3.3980 c3        1 MOL     -0.316669
     99 C34         0.2370    3.3130    3.8970 c3        1 MOL     -0.316669
    100 H41         0.8590    4.8180    1.4350 hn        1 MOL      0.281625
    101 H42        -0.2440    2.0560    1.3850 h1        1 MOL      0.128220
    102 H43        -1.5730    4.0540    3.1210 hc        1 MOL     -0.040637
    103 H44        -2.5110    1.7540    2.7100 hc        1 MOL      0.065539
    104 H45        -0.8830    1.1450    3.3430 hc        1 MOL      0.065539
    105 H46        -2.0420    2.0000    4.4240 hc        1 MOL      0.065539
    106 H47         0.6790    4.2990    3.7670 hc        1 MOL      0.065539
    107 H48        -0.0380    3.2120    4.9450 hc        1 MOL      0.065539
    108 H49         1.0120    2.5620    3.7230 hc        1 MOL      0.065539
    109 N10        -1.8860    2.4600   -0.4760 n         1 MOL     -0.256628
    110 C35        -3.0470    2.4410   -1.3600 c3        1 MOL      0.192528
    111 C36        -4.3160    2.0280   -0.5770 c         1 MOL      0.292799
    112 O17        -4.2390    1.5320    0.5620 o         1 MOL     -0.271317
    113 C37        -2.6410    1.7520   -2.7180 c3        1 MOL     -0.452190
    114 C38        -3.0570    0.3370   -3.0070 c         1 MOL      0.650417
    115 N11        -2.2180   -0.6490   -2.7920 n         1 MOL     -0.731560
    116 O18        -4.1690    0.0830   -3.3800 o         1 MOL     -0.601740
    117 H50        -1.3700    1.5950   -0.4460 hn        1 MOL      0.203438
    118 H51        -3.2450    3.4410   -1.7280 h1        1 MOL      0.047459
    119 H52        -1.5660    1.7860   -2.8890 hc        1 MOL      0.140517
    120 H53        -3.1250    2.3040   -3.5300 hc        1 MOL      0.140517
    121 H54        -1.2800   -0.3240   -2.6230 hn        1 MOL      0.381811
    122 H55        -2.3950   -1.5970   -3.0840 hn        1 MOL      0.381811
    123 N12        -5.4730    2.1120   -1.2550 n         1 MOL     -0.537234
    124 C39        -6.7850    1.8640   -0.6490 c3        1 MOL      0.283185
    125 C40        -6.9500    0.3260   -0.3880 c         1 MOL      0.620030
    126 O19        -7.4420   -0.1200    0.6370 o         1 MOL     -0.554498
    127 C41        -7.8680    2.4440   -1.6070 c3        1 MOL     -0.300649
    128 C42        -9.2060    2.0980   -0.9570 ca        1 MOL      0.062906
    129 C43        -9.5160    2.5800    0.2910 ca        1 MOL     -0.134315
    130 C44       -10.2250    1.5450   -1.8690 ca        1 MOL     -0.134315
    131 C45       -10.9110    2.4110    0.6630 ca        1 MOL     -0.324585
    132 C46       -11.5480    1.3950   -1.4720 ca        1 MOL     -0.324585
    133 C47       -11.8950    1.8310   -0.1740 ca        1 MOL      0.415081
    134 O20       -13.1760    1.7660    0.1890 oh        1 MOL     -0.526811
    135 H56        -5.3430    2.4860   -2.1890 hn        1 MOL      0.312790
    136 H57        -6.9180    2.4020    0.2960 h1        1 MOL      0.063872
    137 H58        -7.8580    1.8680   -2.5320 hc        1 MOL      0.093043
    138 H59        -7.7520    3.5040   -1.8420 hc        1 MOL      0.093043
    139 H60        -8.8210    3.1120    0.9140 ha        1 MOL      0.135553
    140 H61        -9.9920    1.4640   -2.9240 ha        1 MOL      0.135553
    141 H62       -11.1500    2.8170    1.6300 ha        1 MOL      0.157479
    142 H63       -12.2180    0.9510   -2.1950 ha        1 MOL      0.157479
    143 H64       -13.6300    1.2090   -0.4520 ho        1 MOL      0.372827
    144 N13        -6.3480   -0.5500   -1.2070 n         1 MOL     -0.510752
    145 C48        -6.1900   -1.9430   -0.9550 c3        1 MOL     -0.043113
    146 C49        -5.5060   -2.3270    0.3230 c         1 MOL      0.439370
    147 O21        -5.8380   -3.3340    0.8860 o         1 MOL     -0.525402
    148 C50        -5.4900   -2.5860   -2.1350 c3        1 MOL      0.074245
    149 C51        -5.4250   -4.1100   -2.1840 c3        1 MOL     -0.251295
    150 C52        -4.7770   -4.7940   -3.3780 c         1 MOL      0.698127
    151 O22        -3.9260   -4.1380   -4.0570 o         1 MOL     -0.730055
    152 O23        -5.1840   -5.9110   -3.8290 o         1 MOL     -0.730055
    153 H65        -5.8850   -0.2380   -2.0530 hn        1 MOL      0.252874
    154 H66        -7.1680   -2.3660   -0.7580 h1        1 MOL      0.080922
    155 H67        -4.4890   -2.1800   -2.1580 hc        1 MOL      0.034247
    156 H68        -6.0330   -2.3570   -3.0590 hc        1 MOL      0.034247
    157 H69        -6.4320   -4.5230   -2.1810 hc        1 MOL      0.028544
    158 H70        -5.1000   -4.4810   -1.2150 hc        1 MOL      0.028544
    159 N14        -4.5050   -1.5570    0.7220 n         1 MOL     -0.179327
    160 C53        -3.7350   -1.6980    1.9540 c3        1 MOL     -0.055154
    161 C54        -4.4100   -0.9650    3.1120 c         1 MOL      0.404197
    162 O24        -4.2790   -1.4380    4.2900 o         1 MOL     -0.573433
    163 C55        -2.3220   -1.2140    1.7100 c3        1 MOL      0.027920
    164 C56        -1.6010   -1.7960    0.4850 c3        1 MOL     -0.211941
    165 C57        -0.3760   -0.9320    0.0310 c         1 MOL      0.532340
    166 O25         0.7520   -1.4890    0.1260 o         1 MOL     -0.601302
    167 O26        -0.4780    0.0400   -0.6910 o         1 MOL     -0.601302
    168 H71        -4.3160   -0.7410    0.1460 hn        1 MOL      0.251817
    169 H72        -3.6350   -2.7650    2.1540 h1        1 MOL      0.074007
    170 H73        -1.7660   -1.4390    2.6200 hc        1 MOL      0.070750
    171 H74        -2.4040   -0.1420    1.5530 hc        1 MOL      0.070750
    172 H75        -2.3240   -1.9600   -0.3110 hc        1 MOL      0.092067
    173 H76        -1.3390   -2.8020    0.8260 hc        1 MOL      0.092067
    174 N15        -5.0920    0.1450    2.8770 n         1 MOL      0.017294
    175 C58        -5.8460    0.7970    3.9330 c3        1 MOL     -0.250865
    176 H77        -5.2350    1.5780    4.3870 h1        1 MOL      0.085111
    177 H78        -6.7500    1.2400    3.5150 h1        1 MOL      0.085111
    178 H79        -6.1190    0.0640    4.6920 h1        1 MOL      0.085111
    179 H80        -5.0910    0.5560    1.9520 hn        1 MOL     -0.010534
    180 Ca1         2.1210    0.1490   -1.3120 Ca        1 MOL      1.679201
    181 O27         1.3360    2.2880   -2.6140 oh        1 MOL     -0.848601
    182 H81         2.0680    2.8940   -2.6480 ho        1 MOL      0.394388
    183 H82         0.7190    2.6130   -3.2670 ho        1 MOL      0.394388
    184 O28         0.7980   -0.7100   -3.5650 oh        1 MOL     -0.848601
    185 H83         0.5110   -0.3810   -4.4200 ho        1 MOL      0.394388
    186 H84         1.3580   -1.4530   -3.7690 ho        1 MOL      0.394388
@<TRIPOS>BOND
     1    1    2 1   
     2    1    4 1   
     3    1    5 1   
     4    1    6 1   
     5    2    3 2   
     6    2    7 1   
     7    7    8 1   
     8    7   15 1   
     9    8    9 1   
    10    8   11 1   
    11    8   16 1   
    12    9   10 2   
    13    9   19 1   
    14   11   12 1   
    15   11   17 1   
    16   11   18 1   
    17   12   13 1   
    18   12   14 1   
    19   19   20 1   
    20   19   27 1   
    21   20   21 1   
    22   20   23 1   
    23   20   28 1   
    24   21   22 2   
    25   21   38 1   
    26   23   24 1   
    27   23   25 1   
    28   23   29 1   
    29   24   26 1   
    30   24   30 1   
    31   24   31 1   
    32   25   32 1   
    33   25   33 1   
    34   25   34 1   
    35   26   35 1   
    36   26   36 1   
    37   26   37 1   
    38   38   39 1   
    39   38   46 1   
    40   39   40 1   
    41   39   42 1   
    42   39   47 1   
    43   40   41 2   
    44   40   50 1   
    45   42   43 1   
    46   42   48 1   
    47   42   49 1   
    48   43   44 1   
    49   43   45 1   
    50   50   51 1   
    51   50   54 1   
    52   51   52 1   
    53   51   55 1   
    54   51   56 1   
    55   52   53 2   
    56   52   57 1   
    57   57   58 1   
    58   57   65 1   
    59   58   59 1   
    60   58   61 1   
    61   58   66 1   
    62   59   60 2   
    63   59   69 1   
    64   61   62 1   
    65   61   67 1   
    66   61   68 1   
    67   62   63 1   
    68   62   64 1   
    69   69   70 1   
    70   69   73 1   
    71   70   71 1   
    72   70   74 1   
    73   70   75 1   
    74   71   72 2   
    75   71   76 1   
    76   76   77 1   
    77   76   85 1   
    78   77   78 1   
    79   77   80 1   
    80   77   86 1   
    81   78   79 2   
    82   78   93 1   
    83   80   81 1   
    84   80   87 1   
    85   80   88 1   
    86   81   82 1   
    87   81   89 1   
    88   81   90 1   
    89   82   83 1   
    90   82   84 2   
    91   83   91 1   
    92   83   92 1   
    93   93   94 1   
    94   93  100 1   
    95   94   95 1   
    96   94   97 1   
    97   94  101 1   
    98   95   96 2   
    99   95  109 1   
   100   97   98 1   
   101   97   99 1   
   102   97  102 1   
   103   98  103 1   
   104   98  104 1   
   105   98  105 1   
   106   99  106 1   
   107   99  107 1   
   108   99  108 1   
   109  109  110 1   
   110  109  117 1   
   111  110  111 1   
   112  110  113 1   
   113  110  118 1   
   114  111  112 2   
   115  111  123 1   
   116  113  114 1   
   117  113  119 1   
   118  113  120 1   
   119  114  115 1   
   120  114  116 2   
   121  115  121 1   
   122  115  122 1   
   123  123  124 1   
   124  123  135 1   
   125  124  125 1   
   126  124  127 1   
   127  124  136 1   
   128  125  126 2   
   129  125  144 1   
   130  127  128 1   
   131  127  137 1   
   132  127  138 1   
   133  128  129 ar  
   134  128  130 ar  
   135  129  131 ar  
   136  129  139 1   
   137  130  132 ar  
   138  130  140 1   
   139  131  133 ar  
   140  131  141 1   
   141  132  133 ar  
   142  132  142 1   
   143  133  134 1   
   144  134  143 1   
   145  144  145 1   
   146  144  153 1   
   147  145  146 1   
   148  145  148 1   
   149  145  154 1   
   150  146  147 2   
   151  146  159 1   
   152  148  149 1   
   153  148  155 1   
   154  148  156 1   
   155  149  150 1   
   156  149  157 1   
   157  149  158 1   
   158  150  151 1   
   159  150  152 1   
   160  159  160 1   
   161  159  168 1   
   162  160  161 1   
   163  160  163 1   
   164  160  169 1   
   165  161  162 2   
   166  161  174 1   
   167  163  164 1   
   168  163  170 1   
   169  163  171 1   
   170  164  165 1   
   171  164  172 1   
   172  164  173 1   
   173  165  166 1   
   174  165  167 1   
   175  174  175 1   
   176  174  179 1   
   177  175  176 1   
   178  175  177 1   
   179  175  178 1   
   180  181  182 1   
   181  181  183 1   
   182  184  185 1   
   183  184  186 1   
@<TRIPOS>SUBSTRUCTURE
     1 MOL         1 TEMP              0 ****  ****    0 ROOT
