@<TRIPOS>MOLECULE
MOL
  189   185     1     0     0
SMALL
resp


@<TRIPOS>ATOM
      1 C1          0.7080   -2.6440    6.2360 c3        1 MOL     -0.488477
      2 C2          0.8980   -2.4140    4.7440 c         1 MOL      0.805923
      3 O1          1.2540   -1.3680    4.3050 o         1 MOL     -0.579054
      4 H1         -0.0320   -1.9410    6.6200 hc        1 MOL      0.118254
      5 H2          0.3620   -3.6630    6.4060 hc        1 MOL      0.118254
      6 H3          1.6560   -2.4910    6.7510 hc        1 MOL      0.118254
      7 N1          1.0120   -3.5300    3.9920 n         1 MOL     -0.500889
      8 C3          1.7410   -3.5150    2.7460 c3        1 MOL      0.156279
      9 C4          1.4020   -4.6860    1.8460 c         1 MOL      0.553615
     10 O2          1.1540   -5.7900    2.3000 o         1 MOL     -0.567706
     11 C5          3.2300   -3.2520    3.0740 c3        1 MOL     -0.265847
     12 C6          4.0800   -2.7270    1.9280 c         1 MOL      0.775808
     13 O3          5.3330   -2.7090    1.9670 o         1 MOL     -0.715229
     14 O4          3.5440   -2.3860    0.8460 o         1 MOL     -0.715229
     15 H4          0.6140   -4.3990    4.3210 hn        1 MOL      0.267291
     16 H5          1.4750   -2.6030    2.2150 h1        1 MOL     -0.015269
     17 H6          3.6120   -4.2080    3.4490 hc        1 MOL      0.059232
     18 H7          3.3320   -2.6390    3.9690 hc        1 MOL      0.059232
     19 N2          1.3800   -4.4480    0.5010 n         1 MOL     -0.314675
     20 C7          1.3380   -5.6570   -0.4560 c3        1 MOL     -0.213349
     21 C8          2.3280   -5.6390   -1.5970 c         1 MOL      0.564216
     22 O5          2.3450   -6.5320   -2.3920 o         1 MOL     -0.568387
     23 C9         -0.1140   -5.8670   -0.9870 c3        1 MOL      0.164502
     24 C10        -0.5220   -4.7590   -1.9880 c3        1 MOL      0.076186
     25 C11        -1.1280   -6.0220    0.1700 c3        1 MOL     -0.201929
     26 C12        -1.7770   -5.1350   -2.7810 c3        1 MOL     -0.302759
     27 H8          1.6040   -3.5420    0.1320 hn        1 MOL      0.217368
     28 H9          1.6710   -6.5430    0.0710 h1        1 MOL      0.131127
     29 H10        -0.1840   -6.8540   -1.4610 hc        1 MOL     -0.018480
     30 H11         0.2220   -4.5960   -2.7740 hc        1 MOL      0.039327
     31 H12        -0.6450   -3.8180   -1.4620 hc        1 MOL      0.039327
     32 H13        -0.8010   -6.7550    0.9110 hc        1 MOL      0.049017
     33 H14        -1.2900   -5.0690    0.6660 hc        1 MOL      0.049017
     34 H15        -2.0620   -6.3910   -0.2590 hc        1 MOL      0.049017
     35 H16        -2.5350   -5.4340   -2.0630 hc        1 MOL      0.065521
     36 H17        -2.0360   -4.3030   -3.4410 hc        1 MOL      0.065521
     37 H18        -1.6680   -5.9800   -3.4660 hc        1 MOL      0.065521
     38 N3          3.1580   -4.5750   -1.7710 n         1 MOL     -0.448131
     39 C13         3.9570   -4.3020   -2.8860 c3        1 MOL      0.066732
     40 C14         5.3430   -3.6090   -2.4500 c         1 MOL      0.372511
     41 O6          6.2790   -3.5570   -3.2650 o         1 MOL     -0.560575
     42 C15         3.2360   -3.4390   -3.8800 c3        1 MOL     -0.221447
     43 C16         2.6160   -2.1680   -3.2360 c         1 MOL      0.687374
     44 O7          2.9840   -1.7830   -2.0950 o         1 MOL     -0.689858
     45 O8          1.7680   -1.4600   -3.8380 o         1 MOL     -0.689858
     46 H19         3.0940   -3.7960   -1.1300 hn        1 MOL      0.289241
     47 H20         4.1800   -5.2420   -3.4020 h1        1 MOL      0.092813
     48 H21         2.4370   -4.0470   -4.3090 hc        1 MOL      0.070636
     49 H22         3.9060   -3.1610   -4.6890 hc        1 MOL      0.070636
     50 N4          5.4870   -3.1500   -1.2240 n         1 MOL     -0.218796
     51 C17         6.7960   -2.6110   -0.8080 c3        1 MOL     -0.107988
     52 C18         7.2370   -1.3000   -1.4170 c         1 MOL      0.503184
     53 O9          8.4730   -1.1180   -1.3370 o         1 MOL     -0.621199
     54 H23         4.6420   -3.1730   -0.6830 hn        1 MOL      0.180279
     55 H24         7.6560   -3.2480   -1.0520 h1        1 MOL      0.097284
     56 H25         6.8990   -2.4610    0.2660 h1        1 MOL      0.097284
     57 N5          6.3280   -0.5030   -1.9580 n         1 MOL     -0.175840
     58 C19         6.5990    0.7500   -2.6870 c3        1 MOL     -0.066499
     59 C20         7.0600    1.8910   -1.7520 c         1 MOL      0.469265
     60 O10         7.5450    2.9300   -2.2450 o         1 MOL     -0.539055
     61 C21         5.3470    1.1450   -3.4540 c3        1 MOL     -0.232147
     62 C22         4.1840    1.6200   -2.6270 c         1 MOL      0.770828
     63 O11         4.1990    1.3380   -1.4270 o         1 MOL     -0.728757
     64 O12         3.2210    2.2850   -3.1600 o         1 MOL     -0.728757
     65 H26         5.3840   -0.8560   -1.9020 hn        1 MOL      0.212857
     66 H27         7.4600    0.6110   -3.3340 h1        1 MOL      0.096848
     67 H28         5.0180    0.2790   -4.0340 hc        1 MOL      0.072817
     68 H29         5.5390    1.8980   -4.2210 hc        1 MOL      0.072817
     69 N6          6.9650    1.7470   -0.3870 n         1 MOL     -0.263083
     70 C23         7.2170    2.7320    0.6880 c3        1 MOL     -0.154513
     71 C24         6.1310    3.7850    1.1470 c         1 MOL      0.590432
     72 O13         6.3540    4.6300    2.0300 o         1 MOL     -0.609306
     73 H30         6.6990    0.8500   -0.0210 hn        1 MOL      0.239061
     74 H31         7.9980    3.4380    0.3960 h1        1 MOL      0.078278
     75 H32         7.4640    2.2980    1.6600 h1        1 MOL      0.078278
     76 N7          4.8640    3.6530    0.6770 n         1 MOL     -0.371493
     77 C25         3.6110    4.3130    1.1160 c3        1 MOL      0.082694
     78 C26         2.3860    3.3690    1.1430 c         1 MOL      0.517400
     79 O14         2.2940    2.4080    0.3970 o         1 MOL     -0.560479
     80 C27         3.3880    5.5270    0.2310 c3        1 MOL     -0.036008
     81 C28         4.3290    6.7380    0.4760 c3        1 MOL     -0.193803
     82 C29         3.9660    7.9380   -0.4180 c         1 MOL      0.650143
     83 N8          4.3820    7.8590   -1.6530 n         1 MOL     -0.808295
     84 O15         3.5010    8.9520    0.0810 o         1 MOL     -0.578098
     85 H33         4.6600    2.8960    0.0350 hn        1 MOL      0.275877
     86 H34         3.7520    4.5740    2.1700 h1        1 MOL      0.045900
     87 H35         2.3800    5.9160    0.3810 hc        1 MOL      0.042522
     88 H36         3.5680    5.2860   -0.8170 hc        1 MOL      0.042522
     89 H37         5.3230    6.3650    0.2480 hc        1 MOL      0.068991
     90 H38         4.2050    7.1070    1.4940 hc        1 MOL      0.068991
     91 H39         4.7850    7.0050   -1.9930 hn        1 MOL      0.369777
     92 H40         4.2010    8.5900   -2.3360 hn        1 MOL      0.369777
     93 N9          1.4080    3.6330    2.0240 n         1 MOL     -0.574028
     94 C30         0.2250    2.8280    2.2230 c3        1 MOL      0.153082
     95 C31        -1.0200    3.3040    1.5500 c         1 MOL      0.589497
     96 O16        -1.4000    4.4710    1.6730 o         1 MOL     -0.609382
     97 C32         0.1540    2.6360    3.7760 c3        1 MOL      0.364297
     98 C33        -0.1350    3.8690    4.6690 c3        1 MOL     -0.313778
     99 C34        -0.8340    1.5250    4.1360 c3        1 MOL     -0.313778
    100 H41         1.5300    4.3980    2.6660 hn        1 MOL      0.280061
    101 H42         0.4690    1.8510    1.8240 h1        1 MOL      0.074207
    102 H43         1.1300    2.2380    4.0610 hc        1 MOL     -0.066345
    103 H44        -0.2720    3.5180    5.6980 hc        1 MOL      0.056287
    104 H45         0.7210    4.5380    4.7310 hc        1 MOL      0.056287
    105 H46        -0.9830    4.4110    4.2480 hc        1 MOL      0.056287
    106 H47        -0.9710    1.2930    5.1920 hc        1 MOL      0.056287
    107 H48        -1.7730    1.8580    3.7050 hc        1 MOL      0.056287
    108 H49        -0.5000    0.5970    3.6970 hc        1 MOL      0.056287
    109 N10        -1.6720    2.4030    0.8250 n         1 MOL     -0.307614
    110 C35        -2.8780    2.7190    0.0130 c3        1 MOL      0.181720
    111 C36        -4.1470    2.3770    0.7240 c         1 MOL      0.216535
    112 O17        -4.2470    1.6020    1.6750 o         1 MOL     -0.335950
    113 C37        -2.7390    1.7790   -1.2330 c3        1 MOL     -0.456216
    114 C38        -3.8900    2.0100   -2.2350 c         1 MOL      0.840876
    115 N11        -4.0380    3.1780   -2.7600 n         1 MOL     -0.823146
    116 O18        -4.6490    1.1490   -2.4520 o         1 MOL     -0.603811
    117 H50        -1.2310    1.5190    0.6280 hn        1 MOL      0.154150
    118 H51        -2.9460    3.7620   -0.2810 h1        1 MOL      0.033422
    119 H52        -2.5940    0.7140   -1.0440 hc        1 MOL      0.165702
    120 H53        -1.8840    2.0810   -1.8330 hc        1 MOL      0.165702
    121 H54        -3.5210    3.9700   -2.3990 hn        1 MOL      0.348959
    122 H55        -4.8240    3.3130   -3.3900 hn        1 MOL      0.348959
    123 N12        -5.3140    2.8290    0.1840 n         1 MOL     -0.200423
    124 C39        -6.6340    2.3560    0.7160 c3        1 MOL      0.071892
    125 C40        -7.0040    0.9030    0.6440 c         1 MOL      0.382100
    126 O19        -7.7860    0.4680    1.4650 o         1 MOL     -0.588771
    127 C41        -7.7310    3.1500   -0.0390 c3        1 MOL     -0.207297
    128 C42        -7.7210    3.0780   -1.5430 ca        1 MOL      0.107211
    129 C43        -7.1110    4.1140   -2.3050 ca        1 MOL     -0.189346
    130 C44        -8.2460    1.9960   -2.1860 ca        1 MOL     -0.189346
    131 C45        -6.9290    4.0230   -3.6950 ca        1 MOL     -0.231187
    132 C46        -8.1550    1.9950   -3.5980 ca        1 MOL     -0.231187
    133 C47        -7.4750    2.9700   -4.3640 ca        1 MOL      0.349548
    134 O20        -7.4670    3.0240   -5.7450 oh        1 MOL     -0.572463
    135 H56        -5.2660    3.5510   -0.5290 hn        1 MOL      0.132464
    136 H57        -6.7610    2.5590    1.7770 h1        1 MOL      0.073943
    137 H58        -7.6310    4.1750    0.3150 hc        1 MOL      0.063831
    138 H59        -8.7380    2.8940    0.2580 hc        1 MOL      0.063831
    139 H60        -6.6470    4.9390   -1.7920 ha        1 MOL      0.143133
    140 H61        -8.6420    1.1240   -1.6910 ha        1 MOL      0.143133
    141 H62        -6.3430    4.7450   -4.2410 ha        1 MOL      0.131904
    142 H63        -8.4430    1.1370   -4.1860 ha        1 MOL      0.131904
    143 H64        -7.8270    2.2180   -6.1370 ho        1 MOL      0.416599
    144 N13        -6.2660    0.1400   -0.2100 n         1 MOL      0.355694
    145 C48        -6.4300   -1.3480   -0.2620 c3        1 MOL     -0.328985
    146 C49        -5.5480   -1.9820    0.8170 c         1 MOL      0.568910
    147 O21        -5.6460   -3.1800    1.0610 o         1 MOL     -0.525638
    148 C50        -6.1360   -1.7230   -1.6750 c3        1 MOL      0.410123
    149 C51        -6.5750   -3.1270   -1.9840 c3        1 MOL     -0.372330
    150 C52        -8.1290   -3.3020   -1.8770 c         1 MOL      0.671417
    151 O22        -8.7440   -3.6010   -0.8280 o         1 MOL     -0.722674
    152 O23        -8.8110   -2.8300   -2.8350 o         1 MOL     -0.722674
    153 H65        -5.5960    0.5570   -0.8440 hn        1 MOL      0.001606
    154 H66        -7.4570   -1.5530    0.0570 h1        1 MOL      0.168511
    155 H67        -5.0720   -1.5590   -1.8310 hc        1 MOL     -0.069066
    156 H68        -6.6640   -1.0160   -2.3170 hc        1 MOL     -0.069066
    157 H69        -6.1210   -3.9180   -1.3850 hc        1 MOL      0.036846
    158 H70        -6.3250   -3.2850   -3.0250 hc        1 MOL      0.036846
    159 N14        -4.6310   -1.2790    1.5050 n         1 MOL     -0.485021
    160 C53        -3.6960   -1.8440    2.5720 c3        1 MOL      0.044399
    161 C54        -4.2090   -1.2780    3.9760 c         1 MOL      0.495476
    162 O24        -4.0550   -1.9860    4.9350 o         1 MOL     -0.567271
    163 C55        -2.2240   -1.3570    2.2880 c3        1 MOL      0.250512
    164 C56        -1.7930   -1.6620    0.8420 c3        1 MOL     -0.189173
    165 C57        -0.3360   -1.1860    0.5260 c         1 MOL      0.695265
    166 O25         0.5430   -1.9350    0.0920 o         1 MOL     -0.658681
    167 O26        -0.0870    0.0000    0.6480 o         1 MOL     -0.658681
    168 H71        -4.4060   -0.3270    1.2520 hn        1 MOL      0.112413
    169 H72        -3.6370   -2.9290    2.5690 h1        1 MOL      0.071305
    170 H73        -1.6420   -1.8470    3.0740 hc        1 MOL     -0.097294
    171 H74        -2.1160   -0.2760    2.3420 hc        1 MOL     -0.097294
    172 H75        -2.4130   -1.1560    0.0980 hc        1 MOL      0.062134
    173 H76        -1.9370   -2.7320    0.7360 hc        1 MOL      0.062134
    174 N15        -4.7470   -0.0550    3.9990 n         1 MOL     -0.150781
    175 C58        -5.2290    0.5240    5.3000 c3        1 MOL     -0.186880
    176 H77        -5.4160    1.5910    5.1750 h1        1 MOL      0.077433
    177 H78        -6.1520    0.0280    5.6000 h1        1 MOL      0.077433
    178 H79        -4.4700    0.3760    6.0680 h1        1 MOL      0.077433
    179 H80        -4.7850    0.5130    3.1640 hn        1 MOL      0.133844
    180 Ca1         2.5760   -0.1240   -0.1240 Ca        1 MOL      1.779023
    181 O27         2.6370    0.2360    2.6490 oh        1 MOL     -0.910159
    182 H81         1.9220   -0.1350    3.1780 ho        1 MOL      0.418388
    183 H82         3.3070    0.4780    3.2970 ho        1 MOL      0.418388
    184 O28         1.3250    0.6300   -2.2410 oh        1 MOL     -0.910159
    185 H83         1.4380   -0.1230   -2.8150 ho        1 MOL      0.418388
    186 H84         1.8760    1.3130   -2.6170 ho        1 MOL      0.418388
    187 O29         5.1990   -0.1290    1.1410 oh        1 MOL     -0.910159
    188 H85         5.2460   -1.0310    1.4420 ho        1 MOL      0.418388
    189 H86         5.5470    0.3820    1.8760 ho        1 MOL      0.418388
@<TRIPOS>BOND
     1    1    2 1   
     2    1    4 1   
     3    1    5 1   
     4    1    6 1   
     5    2    3 2   
     6    2    7 1   
     7    7    8 1   
     8    7   15 1   
     9    8    9 1   
    10    8   11 1   
    11    8   16 1   
    12    9   10 2   
    13    9   19 1   
    14   11   12 1   
    15   11   17 1   
    16   11   18 1   
    17   12   13 1   
    18   12   14 1   
    19   19   20 1   
    20   19   27 1   
    21   20   21 1   
    22   20   23 1   
    23   20   28 1   
    24   21   22 2   
    25   21   38 1   
    26   23   24 1   
    27   23   25 1   
    28   23   29 1   
    29   24   26 1   
    30   24   30 1   
    31   24   31 1   
    32   25   32 1   
    33   25   33 1   
    34   25   34 1   
    35   26   35 1   
    36   26   36 1   
    37   26   37 1   
    38   38   39 1   
    39   38   46 1   
    40   39   40 1   
    41   39   42 1   
    42   39   47 1   
    43   40   41 2   
    44   40   50 1   
    45   42   43 1   
    46   42   48 1   
    47   42   49 1   
    48   43   44 1   
    49   43   45 1   
    50   50   51 1   
    51   50   54 1   
    52   51   52 1   
    53   51   55 1   
    54   51   56 1   
    55   52   53 2   
    56   52   57 1   
    57   57   58 1   
    58   57   65 1   
    59   58   59 1   
    60   58   61 1   
    61   58   66 1   
    62   59   60 2   
    63   59   69 1   
    64   61   62 1   
    65   61   67 1   
    66   61   68 1   
    67   62   63 1   
    68   62   64 1   
    69   69   70 1   
    70   69   73 1   
    71   70   71 1   
    72   70   74 1   
    73   70   75 1   
    74   71   72 2   
    75   71   76 1   
    76   76   77 1   
    77   76   85 1   
    78   77   78 1   
    79   77   80 1   
    80   77   86 1   
    81   78   79 2   
    82   78   93 1   
    83   80   81 1   
    84   80   87 1   
    85   80   88 1   
    86   81   82 1   
    87   81   89 1   
    88   81   90 1   
    89   82   83 1   
    90   82   84 2   
    91   83   91 1   
    92   83   92 1   
    93   93   94 1   
    94   93  100 1   
    95   94   95 1   
    96   94   97 1   
    97   94  101 1   
    98   95   96 2   
    99   95  109 1   
   100   97   98 1   
   101   97   99 1   
   102   97  102 1   
   103   98  103 1   
   104   98  104 1   
   105   98  105 1   
   106   99  106 1   
   107   99  107 1   
   108   99  108 1   
   109  109  110 1   
   110  109  117 1   
   111  110  111 1   
   112  110  113 1   
   113  110  118 1   
   114  111  112 2   
   115  111  123 1   
   116  113  114 1   
   117  113  119 1   
   118  113  120 1   
   119  114  115 1   
   120  114  116 2   
   121  115  121 1   
   122  115  122 1   
   123  123  124 1   
   124  123  135 1   
   125  124  125 1   
   126  124  127 1   
   127  124  136 1   
   128  125  126 2   
   129  125  144 1   
   130  127  128 1   
   131  127  137 1   
   132  127  138 1   
   133  128  129 ar  
   134  128  130 ar  
   135  129  131 ar  
   136  129  139 1   
   137  130  132 ar  
   138  130  140 1   
   139  131  133 ar  
   140  131  141 1   
   141  132  133 ar  
   142  132  142 1   
   143  133  134 1   
   144  134  143 1   
   145  144  145 1   
   146  144  153 1   
   147  145  146 1   
   148  145  148 1   
   149  145  154 1   
   150  146  147 2   
   151  146  159 1   
   152  148  149 1   
   153  148  155 1   
   154  148  156 1   
   155  149  150 1   
   156  149  157 1   
   157  149  158 1   
   158  150  151 1   
   159  150  152 1   
   160  159  160 1   
   161  159  168 1   
   162  160  161 1   
   163  160  163 1   
   164  160  169 1   
   165  161  162 2   
   166  161  174 1   
   167  163  164 1   
   168  163  170 1   
   169  163  171 1   
   170  164  165 1   
   171  164  172 1   
   172  164  173 1   
   173  165  166 1   
   174  165  167 1   
   175  174  175 1   
   176  174  179 1   
   177  175  176 1   
   178  175  177 1   
   179  175  178 1   
   180  181  182 1   
   181  181  183 1   
   182  184  185 1   
   183  184  186 1   
   184  187  188 1   
   185  187  189 1   
@<TRIPOS>SUBSTRUCTURE
     1 MOL         1 TEMP              0 ****  ****    0 ROOT
