@<TRIPOS>MOLECULE
MOL
  189   185     1     0     0
SMALL
resp


@<TRIPOS>ATOM
      1 C1          0.4670   -3.5330    5.7440 c3        1 MOL     -0.369283
      2 C2          0.8090   -3.0860    4.2820 c         1 MOL      0.812001
      3 O1          0.8620   -1.9310    3.9030 o         1 MOL     -0.612909
      4 H1          0.0010   -2.7040    6.2780 hc        1 MOL      0.098519
      5 H2         -0.2210   -4.3780    5.7150 hc        1 MOL      0.098519
      6 H3          1.3820   -3.8270    6.2590 hc        1 MOL      0.098519
      7 N1          1.1590   -4.0850    3.3920 n         1 MOL     -0.688068
      8 C3          1.9630   -3.7580    2.2450 c3        1 MOL      0.160630
      9 C4          1.9390   -4.9210    1.2240 c         1 MOL      0.467837
     10 O2          2.0770   -6.1070    1.5450 o         1 MOL     -0.592154
     11 C5          3.4600   -3.6000    2.6120 c3        1 MOL     -0.288990
     12 C6          4.3130   -3.0370    1.4230 c         1 MOL      0.631309
     13 O3          3.8350   -2.2360    0.5850 o         1 MOL     -0.651658
     14 O4          5.5220   -3.3210    1.4200 o         1 MOL     -0.651658
     15 H4          1.2430   -5.0120    3.7800 hn        1 MOL      0.333042
     16 H5          1.6350   -2.8790    1.7000 h1        1 MOL      0.114484
     17 H6          3.8870   -4.5980    2.7090 hc        1 MOL      0.075897
     18 H7          3.6280   -3.1180    3.5670 hc        1 MOL      0.075897
     19 N2          1.7960   -4.5710   -0.0350 n         1 MOL     -0.045233
     20 C7          1.7890   -5.3900   -1.2620 c3        1 MOL     -0.140344
     21 C8          2.7480   -4.9300   -2.3550 c         1 MOL      0.474343
     22 O5          2.8500   -5.5920   -3.4140 o         1 MOL     -0.559644
     23 C9          0.3540   -5.6090   -1.7920 c3        1 MOL      0.337665
     24 C10        -0.2680   -4.3600   -2.3880 c3        1 MOL      0.185317
     25 C11        -0.6320   -6.1420   -0.7210 c3        1 MOL     -0.233777
     26 C12        -0.8420   -4.5730   -3.6690 c3        1 MOL     -0.424572
     27 H8          1.5990   -3.5870   -0.1600 hn        1 MOL     -0.021645
     28 H9          2.2140   -6.3830   -1.1050 h1        1 MOL      0.079652
     29 H10         0.4220   -6.3650   -2.5810 hc        1 MOL     -0.073945
     30 H11         0.5430   -3.6310   -2.4540 hc        1 MOL      0.010535
     31 H12        -1.0570   -3.8580   -1.8410 hc        1 MOL      0.010535
     32 H13        -1.0650   -5.3640   -0.0760 hc        1 MOL      0.030163
     33 H14        -1.4430   -6.6030   -1.2760 hc        1 MOL      0.030163
     34 H15        -0.1130   -6.9500   -0.2020 hc        1 MOL      0.030163
     35 H16        -0.0470   -4.8150   -4.3780 hc        1 MOL      0.087485
     36 H17        -1.6130   -5.3300   -3.5790 hc        1 MOL      0.087485
     37 H18        -1.3120   -3.6550   -4.0450 hc        1 MOL      0.087485
     38 N3          3.4650   -3.8150   -2.2260 n         1 MOL     -0.372472
     39 C13         4.1570   -3.1940   -3.3410 c3        1 MOL      0.080007
     40 C14         5.3730   -2.3010   -3.0740 c         1 MOL      0.413927
     41 O6          5.9760   -1.7560   -4.0780 o         1 MOL     -0.568935
     42 C15         3.2090   -2.3730   -4.2450 c3        1 MOL     -0.244689
     43 C16         2.5820   -1.1760   -3.5240 c         1 MOL      0.870430
     44 O7          2.9850   -0.8740   -2.3760 o         1 MOL     -0.752161
     45 O8          1.6950   -0.4560   -4.0560 o         1 MOL     -0.752161
     46 H19         3.5020   -3.3870   -1.3100 hn        1 MOL      0.232961
     47 H20         4.5850   -3.9990   -3.9330 h1        1 MOL      0.075063
     48 H21         2.4190   -3.0730   -4.5150 hc        1 MOL      0.058705
     49 H22         3.6990   -2.0610   -5.1660 hc        1 MOL      0.058705
     50 N4          5.7650   -2.1710   -1.8480 n         1 MOL     -0.240609
     51 C17         7.0470   -1.6620   -1.3990 c3        1 MOL     -0.203949
     52 C18         7.2980   -0.1990   -1.6540 c         1 MOL      0.568130
     53 O9          8.3940    0.2390   -1.5270 o         1 MOL     -0.622729
     54 H23         5.1560   -2.6770   -1.2110 hn        1 MOL      0.220227
     55 H24         7.8200   -2.2350   -1.9030 h1        1 MOL      0.105844
     56 H25         7.1530   -1.7770   -0.3220 h1        1 MOL      0.105844
     57 N5          6.3260    0.5650   -2.1030 n         1 MOL     -0.193745
     58 C19         6.4510    2.0620   -2.3650 c3        1 MOL     -0.107819
     59 C20         6.5930    2.9370   -1.0850 c         1 MOL      0.440450
     60 O10         6.7820    4.1790   -1.1690 o         1 MOL     -0.511455
     61 C21         5.2250    2.5000   -3.1350 c3        1 MOL     -0.210925
     62 C22         3.9510    2.3970   -2.2250 c         1 MOL      0.718365
     63 O11         3.9270    1.8450   -1.0620 o         1 MOL     -0.687777
     64 O12         2.9360    2.9450   -2.6900 o         1 MOL     -0.687777
     65 H26         5.4060    0.1420   -2.1360 hn        1 MOL      0.149879
     66 H27         7.3270    2.3410   -2.9430 h1        1 MOL      0.126720
     67 H28         5.0150    1.9310   -4.0440 hc        1 MOL      0.090217
     68 H29         5.3740    3.5090   -3.5120 hc        1 MOL      0.090217
     69 N6          6.6120    2.2550    0.1370 n         1 MOL     -0.147442
     70 C23         6.9990    3.0190    1.3370 c3        1 MOL      0.000958
     71 C24         5.8630    3.7410    2.0620 c         1 MOL      0.535906
     72 O13         6.1680    4.7630    2.7120 o         1 MOL     -0.576421
     73 H30         6.0660    1.4070    0.2020 hn        1 MOL      0.068682
     74 H31         7.9080    3.6030    1.1890 h1        1 MOL      0.031137
     75 H32         7.3530    2.3380    2.1040 h1        1 MOL      0.031137
     76 N7          4.6050    3.3950    1.7980 n         1 MOL     -0.349572
     77 C25         3.3940    4.0770    2.2530 c3        1 MOL     -0.189739
     78 C26         2.1840    3.1410    2.1430 c         1 MOL      0.692686
     79 O14         2.0270    2.4190    1.1750 o         1 MOL     -0.483947
     80 C27         3.1730    5.3530    1.3730 c3        1 MOL     -0.240429
     81 C28         3.1980    5.1040   -0.1410 c3        1 MOL      0.184709
     82 C29         2.9170    6.3710   -0.9490 c         1 MOL      0.515985
     83 N8          2.7250    6.1360   -2.2500 n         1 MOL     -0.755093
     84 O15         3.1190    7.4830   -0.4600 o         1 MOL     -0.577579
     85 H33         4.4820    2.6110    1.1640 hn        1 MOL      0.288215
     86 H34         3.6430    4.2870    3.2940 h1        1 MOL      0.089741
     87 H35         3.8840    6.1400    1.6030 hc        1 MOL      0.094144
     88 H36         2.2270    5.8290    1.6260 hc        1 MOL      0.094144
     89 H37         2.4680    4.3370   -0.4010 hc        1 MOL      0.003125
     90 H38         4.1600    4.7040   -0.4600 hc        1 MOL      0.003125
     91 H39         2.5340    5.2090   -2.6000 hn        1 MOL      0.347936
     92 H40         2.8260    6.9460   -2.8500 hn        1 MOL      0.347936
     93 N9          1.2420    3.1610    3.1840 n         1 MOL     -0.501693
     94 C30         0.1420    2.1970    3.2210 c3        1 MOL      0.118800
     95 C31        -0.9770    2.6710    2.2300 c         1 MOL      0.487141
     96 O16        -1.2610    3.8520    2.2030 o         1 MOL     -0.610088
     97 C32        -0.4440    1.9080    4.6860 c3        1 MOL      0.322880
     98 C33        -1.4000    0.7170    4.7200 c3        1 MOL     -0.443574
     99 C34         0.6990    1.5210    5.6130 c3        1 MOL     -0.443574
    100 H41         1.3460    3.7910    3.9540 hn        1 MOL      0.294889
    101 H42         0.4110    1.2210    2.8250 h1        1 MOL     -0.197582
    102 H43        -0.9460    2.8120    5.0240 hc        1 MOL     -0.042479
    103 H44        -1.8620    0.6500    5.7020 hc        1 MOL      0.108194
    104 H45        -2.2090    0.8960    4.0140 hc        1 MOL      0.108194
    105 H46        -0.8660   -0.2080    4.5120 hc        1 MOL      0.108194
    106 H47         1.4190    2.3370    5.6240 hc        1 MOL      0.108194
    107 H48         0.3430    1.0940    6.5490 hc        1 MOL      0.108194
    108 H49         1.3140    0.7340    5.1790 hc        1 MOL      0.108194
    109 N10        -1.6320    1.9000    1.3840 n         1 MOL     -0.261371
    110 C35        -2.7230    2.3150    0.4730 c3        1 MOL      0.505646
    111 C36        -4.0780    1.8080    1.0630 c         1 MOL      0.051287
    112 O17        -4.0960    0.8490    1.8350 o         1 MOL     -0.339818
    113 C37        -2.5050    1.8260   -0.9890 c3        1 MOL     -0.405614
    114 C38        -3.6100    2.2230   -2.0430 c         1 MOL      0.710245
    115 N11        -4.1060    3.4370   -2.0660 n         1 MOL     -0.811209
    116 O18        -4.1490    1.3350   -2.6580 o         1 MOL     -0.535666
    117 H50        -1.3550    0.9250    1.3710 hn        1 MOL      0.172949
    118 H51        -2.7960    3.3990    0.4100 h1        1 MOL     -0.040969
    119 H52        -2.2480    0.7820   -1.1780 hc        1 MOL      0.114419
    120 H53        -1.5820    2.3550   -1.2120 hc        1 MOL      0.114419
    121 H54        -3.7150    4.2580   -1.6410 hn        1 MOL      0.362145
    122 H55        -4.8580    3.6130   -2.7130 hn        1 MOL      0.362145
    123 N12        -5.2290    2.3370    0.6960 n         1 MOL     -0.048427
    124 C39        -6.4440    1.9000    1.3040 c3        1 MOL     -0.049380
    125 C40        -6.9250    0.5290    0.9690 c         1 MOL      0.506731
    126 O19        -7.8510   -0.0420    1.5640 o         1 MOL     -0.618067
    127 C41        -7.5670    2.9060    0.9720 c3        1 MOL     -0.192696
    128 C42        -7.6770    3.2470   -0.5060 ca        1 MOL      0.021470
    129 C43        -8.2580    2.3540   -1.4160 ca        1 MOL     -0.134759
    130 C44        -7.0150    4.3380   -0.9650 ca        1 MOL     -0.134759
    131 C45        -8.2810    2.5810   -2.7680 ca        1 MOL     -0.261234
    132 C46        -7.0720    4.6280   -2.3200 ca        1 MOL     -0.261234
    133 C47        -7.6590    3.7770   -3.2370 ca        1 MOL      0.384750
    134 O20        -7.7410    4.1000   -4.5380 oh        1 MOL     -0.567032
    135 H56        -5.1920    3.0590   -0.0090 hn        1 MOL      0.087497
    136 H57        -6.2770    1.9370    2.3840 h1        1 MOL      0.101032
    137 H58        -7.4350    3.7970    1.5810 hc        1 MOL      0.075322
    138 H59        -8.5170    2.5060    1.3040 hc        1 MOL      0.075322
    139 H60        -8.6440    1.4230   -1.0290 ha        1 MOL      0.128070
    140 H61        -6.4560    4.9860   -0.3130 ha        1 MOL      0.128070
    141 H62        -8.5870    1.8270   -3.4740 ha        1 MOL      0.121834
    142 H63        -6.6730    5.5570   -2.7030 ha        1 MOL      0.121834
    143 H64        -8.3100    3.4620   -4.9710 ho        1 MOL      0.434066
    144 N13        -6.3540   -0.1280   -0.0060 n         1 MOL      0.041248
    145 C48        -6.4460   -1.6000   -0.3240 c3        1 MOL     -0.417852
    146 C49        -5.4640   -2.4320    0.4820 c         1 MOL      0.478605
    147 O21        -5.5100   -3.6720    0.4100 o         1 MOL     -0.524546
    148 C50        -6.3710   -1.9880   -1.8320 c3        1 MOL      0.285962
    149 C51        -7.5080   -1.3710   -2.6810 c3        1 MOL     -0.364972
    150 C52        -7.5190   -1.9970   -4.0990 c         1 MOL      0.738579
    151 O22        -7.1990   -3.1700   -4.2120 o         1 MOL     -0.739096
    152 O23        -7.9310   -1.3180   -5.0510 o         1 MOL     -0.739096
    153 H65        -5.6310    0.4010   -0.4630 hn        1 MOL      0.133710
    154 H66        -7.4120   -2.0030   -0.0390 h1        1 MOL      0.167253
    155 H67        -6.3300   -3.0800   -1.8930 hc        1 MOL      0.008860
    156 H68        -5.3730   -1.7330   -2.2010 hc        1 MOL      0.008860
    157 H69        -7.3310   -0.3110   -2.8750 hc        1 MOL      0.070256
    158 H70        -8.5060   -1.4520   -2.2430 hc        1 MOL      0.070256
    159 N14        -4.4620   -1.8420    1.2160 n         1 MOL     -0.215134
    160 C53        -3.6030   -2.5150    2.1990 c3        1 MOL     -0.216295
    161 C54        -4.1160   -2.4930    3.6070 c         1 MOL      0.476306
    162 O24        -3.7630   -3.3160    4.4790 o         1 MOL     -0.545236
    163 C55        -2.2330   -1.9130    2.0660 c3        1 MOL     -0.009810
    164 C56        -1.5110   -2.2440    0.7200 c3        1 MOL      0.027148
    165 C57        -0.2010   -1.5400    0.4640 c         1 MOL      0.775036
    166 O25         0.6400   -1.9130   -0.3660 o         1 MOL     -0.768888
    167 O26        -0.0090   -0.5130    1.1470 o         1 MOL     -0.768888
    168 H71        -4.3930   -0.8410    1.1580 hn        1 MOL      0.150773
    169 H72        -3.5640   -3.5880    2.0280 h1        1 MOL      0.145691
    170 H73        -1.6520   -2.3830    2.8560 hc        1 MOL      0.046443
    171 H74        -2.2340   -0.8270    2.1390 hc        1 MOL      0.046443
    172 H75        -2.2020   -1.9450   -0.0690 hc        1 MOL      0.006436
    173 H76        -1.3800   -3.3130    0.6200 hc        1 MOL      0.006436
    174 N15        -5.1420   -1.6360    3.8780 n         1 MOL     -0.138910
    175 C58        -5.7440   -1.5890    5.1950 c3        1 MOL     -0.159343
    176 H77        -6.0470   -0.5660    5.4190 h1        1 MOL      0.067721
    177 H78        -6.6180   -2.2390    5.2200 h1        1 MOL      0.067721
    178 H79        -5.0200   -1.9230    5.9380 h1        1 MOL      0.067721
    179 H80        -5.3010   -0.8940    3.2130 hn        1 MOL      0.131489
    180 Ca1         2.4500   -0.0210   -0.0140 Ca        1 MOL      1.796701
    181 O27         2.6580   -0.2570    2.6630 oh        1 MOL     -0.872252
    182 H81         1.9370   -0.7800    3.0130 ho        1 MOL      0.422778
    183 H82         3.2700   -0.1660    3.3930 ho        1 MOL      0.422778
    184 O28         5.3410   -0.1980    1.3680 oh        1 MOL     -0.872252
    185 H83         5.1510   -1.1280    1.4700 ho        1 MOL      0.422778
    186 H84         6.2770   -0.1260    1.5680 ho        1 MOL      0.422778
    187 O29         0.9080    1.3950   -1.6250 oh        1 MOL     -0.872252
    188 H85         1.5300    2.0310   -1.9840 ho        1 MOL      0.422778
    189 H86         0.6890    0.8240   -2.3500 ho        1 MOL      0.422778
@<TRIPOS>BOND
     1    1    2 1   
     2    1    4 1   
     3    1    5 1   
     4    1    6 1   
     5    2    3 2   
     6    2    7 1   
     7    7    8 1   
     8    7   15 1   
     9    8    9 1   
    10    8   11 1   
    11    8   16 1   
    12    9   10 2   
    13    9   19 1   
    14   11   12 1   
    15   11   17 1   
    16   11   18 1   
    17   12   13 1   
    18   12   14 1   
    19   19   20 1   
    20   19   27 1   
    21   20   21 1   
    22   20   23 1   
    23   20   28 1   
    24   21   22 2   
    25   21   38 1   
    26   23   24 1   
    27   23   25 1   
    28   23   29 1   
    29   24   26 1   
    30   24   30 1   
    31   24   31 1   
    32   25   32 1   
    33   25   33 1   
    34   25   34 1   
    35   26   35 1   
    36   26   36 1   
    37   26   37 1   
    38   38   39 1   
    39   38   46 1   
    40   39   40 1   
    41   39   42 1   
    42   39   47 1   
    43   40   41 2   
    44   40   50 1   
    45   42   43 1   
    46   42   48 1   
    47   42   49 1   
    48   43   44 1   
    49   43   45 1   
    50   50   51 1   
    51   50   54 1   
    52   51   52 1   
    53   51   55 1   
    54   51   56 1   
    55   52   53 2   
    56   52   57 1   
    57   57   58 1   
    58   57   65 1   
    59   58   59 1   
    60   58   61 1   
    61   58   66 1   
    62   59   60 2   
    63   59   69 1   
    64   61   62 1   
    65   61   67 1   
    66   61   68 1   
    67   62   63 1   
    68   62   64 1   
    69   69   70 1   
    70   69   73 1   
    71   70   71 1   
    72   70   74 1   
    73   70   75 1   
    74   71   72 2   
    75   71   76 1   
    76   76   77 1   
    77   76   85 1   
    78   77   78 1   
    79   77   80 1   
    80   77   86 1   
    81   78   79 2   
    82   78   93 1   
    83   80   81 1   
    84   80   87 1   
    85   80   88 1   
    86   81   82 1   
    87   81   89 1   
    88   81   90 1   
    89   82   83 1   
    90   82   84 2   
    91   83   91 1   
    92   83   92 1   
    93   93   94 1   
    94   93  100 1   
    95   94   95 1   
    96   94   97 1   
    97   94  101 1   
    98   95   96 2   
    99   95  109 1   
   100   97   98 1   
   101   97   99 1   
   102   97  102 1   
   103   98  103 1   
   104   98  104 1   
   105   98  105 1   
   106   99  106 1   
   107   99  107 1   
   108   99  108 1   
   109  109  110 1   
   110  109  117 1   
   111  110  111 1   
   112  110  113 1   
   113  110  118 1   
   114  111  112 2   
   115  111  123 1   
   116  113  114 1   
   117  113  119 1   
   118  113  120 1   
   119  114  115 1   
   120  114  116 2   
   121  115  121 1   
   122  115  122 1   
   123  123  124 1   
   124  123  135 1   
   125  124  125 1   
   126  124  127 1   
   127  124  136 1   
   128  125  126 2   
   129  125  144 1   
   130  127  128 1   
   131  127  137 1   
   132  127  138 1   
   133  128  129 ar  
   134  128  130 ar  
   135  129  131 ar  
   136  129  139 1   
   137  130  132 ar  
   138  130  140 1   
   139  131  133 ar  
   140  131  141 1   
   141  132  133 ar  
   142  132  142 1   
   143  133  134 1   
   144  134  143 1   
   145  144  145 1   
   146  144  153 1   
   147  145  146 1   
   148  145  148 1   
   149  145  154 1   
   150  146  147 2   
   151  146  159 1   
   152  148  149 1   
   153  148  155 1   
   154  148  156 1   
   155  149  150 1   
   156  149  157 1   
   157  149  158 1   
   158  150  151 1   
   159  150  152 1   
   160  159  160 1   
   161  159  168 1   
   162  160  161 1   
   163  160  163 1   
   164  160  169 1   
   165  161  162 2   
   166  161  174 1   
   167  163  164 1   
   168  163  170 1   
   169  163  171 1   
   170  164  165 1   
   171  164  172 1   
   172  164  173 1   
   173  165  166 1   
   174  165  167 1   
   175  174  175 1   
   176  174  179 1   
   177  175  176 1   
   178  175  177 1   
   179  175  178 1   
   180  181  182 1   
   181  181  183 1   
   182  184  185 1   
   183  184  186 1   
   184  187  188 1   
   185  187  189 1   
@<TRIPOS>SUBSTRUCTURE
     1 MOL         1 TEMP              0 ****  ****    0 ROOT
