@<TRIPOS>MOLECULE
MOL
  189   185     1     0     0
SMALL
resp


@<TRIPOS>ATOM
      1 C1          0.5480    2.4810    4.8690 c3        1 MOL     -0.456281
      2 C2         -0.1870    2.4200    3.5690 c         1 MOL      0.668548
      3 O1          0.3430    2.8330    2.5230 o         1 MOL     -0.549183
      4 H1         -0.0670    2.9930    5.6090 hc        1 MOL      0.123511
      5 H2          0.7630    1.4690    5.2130 hc        1 MOL      0.123511
      6 H3          1.4820    3.0260    4.7330 hc        1 MOL      0.123511
      7 N1         -1.4400    1.9550    3.6020 n         1 MOL     -0.598763
      8 C3         -2.2120    1.6260    2.4160 c3        1 MOL      0.488123
      9 C4         -2.8920    2.8580    1.7740 c         1 MOL      0.150151
     10 O2         -4.0610    3.0920    2.0710 o         1 MOL     -0.478368
     11 C5         -3.2320    0.5040    2.7340 c3        1 MOL     -0.329750
     12 C6         -3.9950    0.1220    1.4290 c         1 MOL      0.700900
     13 O3         -5.0250   -0.5510    1.5940 o         1 MOL     -0.602785
     14 O4         -3.4410    0.2730    0.2820 o         1 MOL     -0.602785
     15 H4         -1.8710    1.6820    4.4770 hn        1 MOL      0.300638
     16 H5         -1.5600    1.1510    1.6830 h1        1 MOL     -0.088283
     17 H6         -3.9570    1.0090    3.3750 hc        1 MOL      0.061545
     18 H7         -2.7390   -0.3320    3.2280 hc        1 MOL      0.061545
     19 N2         -2.1610    3.6050    1.0170 n         1 MOL     -0.012331
     20 C7         -2.5130    4.8730    0.4030 c3        1 MOL     -0.047480
     21 C8         -3.3030    4.7620   -0.9280 c         1 MOL      0.343039
     22 O5         -4.0280    5.6830   -1.3250 o         1 MOL     -0.562100
     23 C9         -1.2920    5.8110    0.2760 c3        1 MOL     -0.247447
     24 C10        -0.8370    6.4320    1.6190 c3        1 MOL      0.033453
     25 C11        -1.9120    7.2980    2.3820 c3        1 MOL      0.022036
     26 C12        -1.4430    7.5300    3.8300 c3        1 MOL     -0.075364
     27 N3         -2.5590    7.9700    4.6970 n4        1 MOL     -0.146656
     28 H8         -1.1590    3.4380    0.9830 hn        1 MOL      0.235176
     29 H9         -3.2210    5.2820    1.1210 h1        1 MOL      0.085274
     30 H10        -1.5210    6.5970   -0.4360 hc        1 MOL      0.115217
     31 H11        -0.4140    5.2710   -0.0640 hc        1 MOL      0.115217
     32 H12         0.0560    7.0370    1.4390 hc        1 MOL      0.019967
     33 H13        -0.6160    5.5600    2.2290 hc        1 MOL      0.019967
     34 H14        -2.8970    6.8430    2.3860 hc        1 MOL      0.030908
     35 H15        -2.0160    8.2850    1.9230 hc        1 MOL      0.030908
     36 H16        -0.6830    8.3180    3.8130 hx        1 MOL      0.087385
     37 H17        -1.0990    6.5780    4.2130 hx        1 MOL      0.087385
     38 H18        -2.3620    8.2710    5.6370 hn        1 MOL      0.276134
     39 H19        -3.0350    8.7600    4.2830 hn        1 MOL      0.276134
     40 H20        -3.2380    7.2480    4.8660 hn        1 MOL      0.276134
     41 N4         -3.1670    3.7060   -1.6800 n         1 MOL     -0.114376
     42 C13        -3.9170    3.5340   -2.8950 c3        1 MOL      0.195280
     43 C14        -5.2330    2.7660   -2.5710 c         1 MOL      0.288150
     44 O6         -6.1330    2.6380   -3.4520 o         1 MOL     -0.511144
     45 C15        -3.1510    2.9280   -4.0530 c3        1 MOL     -0.336797
     46 C16        -2.4890    1.5680   -3.7500 c         1 MOL      0.880099
     47 O7         -2.8130    0.9680   -2.7140 o         1 MOL     -0.754041
     48 O8         -1.4290    1.2580   -4.3840 o         1 MOL     -0.754041
     49 H21        -2.6480    3.0030   -1.1870 hn        1 MOL      0.065709
     50 H22        -4.3300    4.4600   -3.2930 h1        1 MOL      0.073197
     51 H23        -2.4110    3.6580   -4.3660 hc        1 MOL      0.070807
     52 H24        -3.8440    2.7980   -4.8910 hc        1 MOL      0.070807
     53 N5         -5.3750    2.1360   -1.4080 n         1 MOL     -0.047445
     54 C17        -6.6890    1.7400   -0.7410 c3        1 MOL     -0.078612
     55 C18        -7.2550    0.3560   -1.1280 c         1 MOL      0.431631
     56 O9         -8.4430    0.2420   -1.4800 o         1 MOL     -0.570778
     57 H25        -4.5960    2.0470   -0.7770 hn        1 MOL      0.064074
     58 H26        -7.4220    2.5230   -0.8920 h1        1 MOL      0.075225
     59 H27        -6.5510    1.7330    0.3350 h1        1 MOL      0.075225
     60 N6         -6.4050   -0.6440   -1.3400 n         1 MOL     -0.043513
     61 C19        -6.6080   -2.0020   -1.9160 c3        1 MOL     -0.005823
     62 C20        -6.7250   -3.0970   -0.7580 c         1 MOL      0.363494
     63 O10        -7.0680   -4.2330   -1.0660 o         1 MOL     -0.499297
     64 C21        -5.6400   -2.4740   -3.0870 c3        1 MOL     -0.227972
     65 C22        -4.2390   -2.1180   -2.7550 c         1 MOL      0.631071
     66 O11        -3.8490   -2.1640   -1.5590 o         1 MOL     -0.641806
     67 O12        -3.4350   -1.8440   -3.6890 o         1 MOL     -0.641806
     68 H28        -5.4410   -0.5310   -1.0470 hn        1 MOL      0.019720
     69 H29        -7.5700   -2.0660   -2.4230 h1        1 MOL      0.090111
     70 H30        -5.8670   -1.9230   -4.0050 hc        1 MOL      0.097791
     71 H31        -5.7600   -3.5520   -3.2070 hc        1 MOL      0.097791
     72 N7         -6.4430   -2.7270    0.4920 n         1 MOL     -0.291654
     73 C23        -6.3760   -3.6600    1.6200 c3        1 MOL      0.166985
     74 C24        -5.0730   -4.5330    1.7010 c         1 MOL      0.421810
     75 O13        -5.0560   -5.6890    2.0570 o         1 MOL     -0.535779
     76 H32        -6.0480   -1.8200    0.6570 hn        1 MOL      0.178775
     77 H33        -7.1930   -4.3860    1.6930 h1        1 MOL      0.010819
     78 H34        -6.4790   -3.1120    2.5620 h1        1 MOL      0.010819
     79 N8         -3.9220   -3.9770    1.2000 n         1 MOL     -0.215226
     80 C25        -2.5970   -4.6570    1.1560 c3        1 MOL     -0.306452
     81 C26        -1.5040   -3.5970    1.1970 c         1 MOL      0.576792
     82 O14        -1.6710   -2.4720    0.6390 o         1 MOL     -0.614578
     83 C27        -2.3720   -5.4310   -0.1390 c3        1 MOL      0.464017
     84 C28        -2.9940   -6.9090   -0.0860 c3        1 MOL     -0.611934
     85 O15        -2.9990   -4.8670   -1.3570 oh        1 MOL     -0.628692
     86 H35        -4.0610   -3.0090    0.9440 hn        1 MOL      0.207230
     87 H36        -2.4990   -5.2560    2.0550 h1        1 MOL      0.157951
     88 H37        -1.2960   -5.4220   -0.3440 h1        1 MOL     -0.023460
     89 H38        -3.2360   -3.9550   -1.1630 ho        1 MOL      0.466424
     90 H39        -2.5640   -7.4530    0.7490 hc        1 MOL      0.168527
     91 H40        -4.0760   -6.8030    0.0550 hc        1 MOL      0.168527
     92 H41        -2.8470   -7.4920   -0.9970 hc        1 MOL      0.168527
     93 N9         -0.3920   -3.9130    1.8400 n         1 MOL     -0.487472
     94 C29         0.7630   -2.9940    2.1450 c3        1 MOL      0.010994
     95 C30         2.0460   -3.4320    1.3100 c         1 MOL      0.412071
     96 O16         2.4990   -4.5410    1.4540 o         1 MOL     -0.542309
     97 C31         1.1660   -2.8940    3.6300 c3        1 MOL      0.437544
     98 C32        -0.0830   -2.5570    4.5500 c3        1 MOL     -0.057151
     99 C33         2.2680   -1.8590    3.8020 c3        1 MOL     -0.485405
    100 C34         0.2720   -2.5180    6.0310 c3        1 MOL     -0.017251
    101 H42        -0.3350   -4.7700    2.3730 hn        1 MOL      0.282166
    102 H43         0.5330   -1.9900    1.7900 h1        1 MOL      0.116098
    103 H44         1.5370   -3.8510    3.9800 hc        1 MOL     -0.073468
    104 H45        -0.6750   -3.4570    4.4400 hc        1 MOL      0.001007
    105 H46        -0.4960   -1.6430    4.1210 hc        1 MOL      0.001007
    106 H47         3.1880   -2.1210    3.2950 hc        1 MOL      0.079778
    107 H48         1.9080   -0.9590    3.2810 hc        1 MOL      0.079778
    108 H49         2.4900   -1.6880    4.8540 hc        1 MOL      0.079778
    109 H50         0.7870   -1.6300    6.3860 hc        1 MOL      0.007953
    110 H51        -0.6430   -2.4300    6.6190 hc        1 MOL      0.007953
    111 H52         0.6770   -3.4500    6.4180 hc        1 MOL      0.007953
    112 N10         2.5740   -2.5280    0.4490 n         1 MOL     -0.023107
    113 C35         3.7170   -2.8390   -0.3570 c3        1 MOL      0.007036
    114 C36         5.0840   -2.4720    0.2630 c         1 MOL      0.211977
    115 O17         5.1480   -1.7960    1.3090 o         1 MOL     -0.289025
    116 C37         3.6580   -2.0910   -1.6990 c3        1 MOL     -0.011740
    117 C38         2.5490   -2.6240   -2.5180 c3        1 MOL     -0.147019
    118 O18         3.5520   -0.7150   -1.5130 oh        1 MOL     -0.164259
    119 H53         2.1050   -1.6420    0.3310 hn        1 MOL      0.192972
    120 H54         3.7650   -3.9010   -0.5780 h1        1 MOL      0.084288
    121 H55         4.5880   -2.1920   -2.2560 h1        1 MOL      0.033151
    122 H56         3.0420   -0.3210   -2.2200 ho        1 MOL      0.315781
    123 H57         2.7710   -3.6700   -2.7360 hc        1 MOL      0.036840
    124 H58         1.5960   -2.3730   -2.0650 hc        1 MOL      0.036840
    125 H59         2.6140   -2.0290   -3.4250 hc        1 MOL      0.036840
    126 N11         6.2500   -2.8680   -0.3320 n         1 MOL     -0.205064
    127 C39         7.5900   -2.4940    0.0410 c3        1 MOL     -0.256158
    128 C40         7.7410   -0.9560   -0.1850 c         1 MOL      0.493949
    129 O19         8.4940   -0.3400    0.5630 o         1 MOL     -0.508240
    130 C41         8.7140   -3.1970   -0.7080 c3        1 MOL      0.310124
    131 C42         8.6230   -4.7190   -0.5020 c3        1 MOL     -0.289199
    132 O20         8.6050   -3.0410   -2.0670 oh        1 MOL     -0.619357
    133 H60         6.2350   -3.4680   -1.1540 hn        1 MOL      0.267490
    134 H61         7.7010   -2.5530    1.1220 h1        1 MOL      0.155344
    135 H62         9.6810   -2.8390   -0.3780 h1        1 MOL      0.048946
    136 H63         9.3520   -3.5580   -2.3850 ho        1 MOL      0.404078
    137 H64         8.6800   -4.8460    0.5800 hc        1 MOL      0.078385
    138 H65         7.7030   -5.1260   -0.9330 hc        1 MOL      0.078385
    139 H66         9.4720   -5.3410   -0.8050 hc        1 MOL      0.078385
    140 N12         7.0350   -0.3680   -1.1360 n         1 MOL     -0.304066
    141 C43         6.8670    1.0730   -1.2800 c3        1 MOL     -0.085731
    142 C44         6.0590    1.6940   -0.1900 c         1 MOL      0.303234
    143 O21         6.5480    2.7060    0.2650 o         1 MOL     -0.539574
    144 C45         6.3170    1.2370   -2.6910 c3        1 MOL     -0.103852
    145 C46         6.2780    2.7120   -3.1520 c3        1 MOL      0.013821
    146 C47         5.8830    2.8130   -4.6130 c3        1 MOL      0.034281
    147 C48         5.9860    4.2470   -5.1060 c3        1 MOL      0.022906
    148 N13         7.3640    4.6250   -5.4910 n4        1 MOL     -0.438280
    149 H67         6.4240   -0.9350   -1.7020 hn        1 MOL      0.226252
    150 H68         7.8640    1.5170   -1.2690 h1        1 MOL      0.144460
    151 H69         5.3110    0.8340   -2.7320 hc        1 MOL      0.031008
    152 H70         6.8560    0.6600   -3.4410 hc        1 MOL      0.031008
    153 H71         7.2470    3.1930   -3.0390 hc        1 MOL      0.022400
    154 H72         5.5600    3.2700   -2.5640 hc        1 MOL      0.022400
    155 H73         4.8390    2.4990   -4.6670 hc        1 MOL      0.023106
    156 H74         6.4590    2.2080   -5.3120 hc        1 MOL      0.023106
    157 H75         5.6080    4.8780   -4.3060 hx        1 MOL      0.094463
    158 H76         5.3070    4.4420   -5.9300 hx        1 MOL      0.094463
    159 H77         7.5590    5.5900   -5.7050 hn        1 MOL      0.326279
    160 H78         8.0420    4.4660   -4.7620 hn        1 MOL      0.326279
    161 H79         7.5210    4.1090   -6.3380 hn        1 MOL      0.326279
    162 N14         4.9940    1.1850    0.3970 n         1 MOL      0.407547
    163 C49         4.0800    1.7780    1.4070 c3        1 MOL     -0.337891
    164 C50         4.7300    1.6930    2.7990 c         1 MOL      0.490046
    165 O22         4.5160    2.6810    3.5330 o         1 MOL     -0.534545
    166 C51         2.6660    1.0570    1.3690 c3        1 MOL      0.119507
    167 C52         1.9500    1.6170    0.0940 c3        1 MOL     -0.382616
    168 C53         0.7430    0.8060   -0.4670 c         1 MOL      0.717145
    169 O23         0.6570   -0.4300   -0.2970 o         1 MOL     -0.753859
    170 O24        -0.2090    1.4100   -0.9720 o         1 MOL     -0.753859
    171 H80         4.5130    0.4010   -0.0180 hn        1 MOL     -0.294454
    172 H81         3.9680    2.8330    1.1680 h1        1 MOL      0.118343
    173 H82         2.1190    1.3350    2.2710 hc        1 MOL      0.049822
    174 H83         2.8080   -0.0240    1.3190 hc        1 MOL      0.049822
    175 H84         2.6940    1.6560   -0.7070 hc        1 MOL      0.102778
    176 H85         1.7250    2.6510    0.3820 hc        1 MOL      0.102778
    177 N15         5.4070    0.5510    3.1690 n         1 MOL     -0.140629
    178 C54         6.4030    0.5230    4.1900 c3        1 MOL     -0.284827
    179 H86         5.9830    0.9130    5.1170 h1        1 MOL      0.108704
    180 H87         6.7360   -0.5020    4.3460 h1        1 MOL      0.108704
    181 H88         7.2500    1.1390    3.8880 h1        1 MOL      0.108704
    182 H89         5.3310   -0.2280    2.5380 hn        1 MOL      0.139403
    183 Ca1        -1.7890   -0.7050   -1.3780 Ca        1 MOL      1.755769
    184 O25        -0.0080   -1.0060   -3.8400 oh        1 MOL     -0.813948
    185 H90         0.8970   -0.7500   -3.9570 ho        1 MOL      0.389424
    186 H91        -0.5120   -0.2910   -4.2400 ho        1 MOL      0.389424
    187 O26        -0.7590   -3.1240   -2.0690 oh        1 MOL     -0.813948
    188 H92        -0.9900   -4.0410   -2.2490 ho        1 MOL      0.389424
    189 H93        -0.0950   -2.9140   -2.7280 ho        1 MOL      0.389424
@<TRIPOS>BOND
     1    1    2 1   
     2    1    4 1   
     3    1    5 1   
     4    1    6 1   
     5    2    3 2   
     6    2    7 1   
     7    7    8 1   
     8    7   15 1   
     9    8    9 1   
    10    8   11 1   
    11    8   16 1   
    12    9   10 2   
    13    9   19 1   
    14   11   12 1   
    15   11   17 1   
    16   11   18 1   
    17   12   13 1   
    18   12   14 1   
    19   19   20 1   
    20   19   28 1   
    21   20   21 1   
    22   20   23 1   
    23   20   29 1   
    24   21   22 2   
    25   21   41 1   
    26   23   24 1   
    27   23   30 1   
    28   23   31 1   
    29   24   25 1   
    30   24   32 1   
    31   24   33 1   
    32   25   26 1   
    33   25   34 1   
    34   25   35 1   
    35   26   27 1   
    36   26   36 1   
    37   26   37 1   
    38   27   38 1   
    39   27   39 1   
    40   27   40 1   
    41   41   42 1   
    42   41   49 1   
    43   42   43 1   
    44   42   45 1   
    45   42   50 1   
    46   43   44 2   
    47   43   53 1   
    48   45   46 1   
    49   45   51 1   
    50   45   52 1   
    51   46   47 1   
    52   46   48 1   
    53   53   54 1   
    54   53   57 1   
    55   54   55 1   
    56   54   58 1   
    57   54   59 1   
    58   55   56 2   
    59   55   60 1   
    60   60   61 1   
    61   60   68 1   
    62   61   62 1   
    63   61   64 1   
    64   61   69 1   
    65   62   63 2   
    66   62   72 1   
    67   64   65 1   
    68   64   70 1   
    69   64   71 1   
    70   65   66 1   
    71   65   67 1   
    72   72   73 1   
    73   72   76 1   
    74   73   74 1   
    75   73   77 1   
    76   73   78 1   
    77   74   75 2   
    78   74   79 1   
    79   79   80 1   
    80   79   86 1   
    81   80   81 1   
    82   80   83 1   
    83   80   87 1   
    84   81   82 2   
    85   81   93 1   
    86   83   84 1   
    87   83   85 1   
    88   83   88 1   
    89   84   90 1   
    90   84   91 1   
    91   84   92 1   
    92   85   89 1   
    93   93   94 1   
    94   93  101 1   
    95   94   95 1   
    96   94   97 1   
    97   94  102 1   
    98   95   96 2   
    99   95  112 1   
   100   97   98 1   
   101   97   99 1   
   102   97  103 1   
   103   98  100 1   
   104   98  104 1   
   105   98  105 1   
   106   99  106 1   
   107   99  107 1   
   108   99  108 1   
   109  100  109 1   
   110  100  110 1   
   111  100  111 1   
   112  112  113 1   
   113  112  119 1   
   114  113  114 1   
   115  113  116 1   
   116  113  120 1   
   117  114  115 2   
   118  114  126 1   
   119  116  117 1   
   120  116  118 1   
   121  116  121 1   
   122  117  123 1   
   123  117  124 1   
   124  117  125 1   
   125  118  122 1   
   126  126  127 1   
   127  126  133 1   
   128  127  128 1   
   129  127  130 1   
   130  127  134 1   
   131  128  129 2   
   132  128  140 1   
   133  130  131 1   
   134  130  132 1   
   135  130  135 1   
   136  131  137 1   
   137  131  138 1   
   138  131  139 1   
   139  132  136 1   
   140  140  141 1   
   141  140  149 1   
   142  141  142 1   
   143  141  144 1   
   144  141  150 1   
   145  142  143 2   
   146  142  162 1   
   147  144  145 1   
   148  144  151 1   
   149  144  152 1   
   150  145  146 1   
   151  145  153 1   
   152  145  154 1   
   153  146  147 1   
   154  146  155 1   
   155  146  156 1   
   156  147  148 1   
   157  147  157 1   
   158  147  158 1   
   159  148  159 1   
   160  148  160 1   
   161  148  161 1   
   162  162  163 1   
   163  162  171 1   
   164  163  164 1   
   165  163  166 1   
   166  163  172 1   
   167  164  165 2   
   168  164  177 1   
   169  166  167 1   
   170  166  173 1   
   171  166  174 1   
   172  167  168 1   
   173  167  175 1   
   174  167  176 1   
   175  168  169 1   
   176  168  170 1   
   177  177  178 1   
   178  177  182 1   
   179  178  179 1   
   180  178  180 1   
   181  178  181 1   
   182  184  185 1   
   183  184  186 1   
   184  187  188 1   
   185  187  189 1   
@<TRIPOS>SUBSTRUCTURE
     1 MOL         1 TEMP              0 ****  ****    0 ROOT
