@<TRIPOS>MOLECULE
MOL
  183   181     1     0     0
SMALL
resp


@<TRIPOS>ATOM
      1 C1         -0.4340    1.9430    6.4320 c3        1 MOL     -0.387082
      2 C2         -0.7560    1.8150    4.9240 c         1 MOL      0.834917
      3 O1          0.0010    2.3020    4.0960 o         1 MOL     -0.641292
      4 H1          0.3380    2.6990    6.5750 hc        1 MOL      0.090656
      5 H2         -1.3340    2.2370    6.9730 hc        1 MOL      0.090656
      6 H3         -0.0780    0.9850    6.8100 hc        1 MOL      0.090656
      7 N1         -1.9310    1.3720    4.4910 n         1 MOL     -0.815500
      8 C3         -2.4360    1.3750    3.0880 c3        1 MOL      0.528153
      9 C4         -2.8120    2.8830    2.6550 c         1 MOL      0.425251
     10 O2         -3.2870    3.6320    3.5230 o         1 MOL     -0.590269
     11 C5         -3.6940    0.4640    2.9840 c3        1 MOL     -0.334401
     12 C6         -4.5010    0.4900    1.6410 c         1 MOL      0.715878
     13 O3         -5.6580   -0.0150    1.6240 o         1 MOL     -0.643091
     14 O4         -3.9300    0.9030    0.6120 o         1 MOL     -0.643091
     15 H4         -2.5900    1.2520    5.2430 hn        1 MOL      0.338073
     16 H5         -1.6920    1.0070    2.3850 h1        1 MOL     -0.012442
     17 H6         -4.3320    0.8500    3.7780 hc        1 MOL      0.054215
     18 H7         -3.5660   -0.5260    3.4160 hc        1 MOL      0.054215
     19 N2         -2.5160    3.2790    1.4590 n         1 MOL     -0.161866
     20 C7         -2.5570    4.6760    1.0660 c3        1 MOL      0.053527
     21 C8         -3.5450    4.9750   -0.0090 c         1 MOL      0.558472
     22 O5         -4.2340    6.0660    0.0830 o         1 MOL     -0.603697
     23 C9         -1.1020    5.1970    0.8630 c3        1 MOL      0.150812
     24 C10        -0.0800    4.7420    1.9250 c3        1 MOL     -0.116458
     25 C11        -1.1560    6.7790    0.7130 c3        1 MOL     -0.301829
     26 C12         1.4280    5.0810    1.6570 c3        1 MOL     -0.056863
     27 H8         -1.9500    2.6410    0.9270 hn        1 MOL     -0.115820
     28 H9         -3.0500    5.2100    1.8860 h1        1 MOL      0.044006
     29 H10        -0.8790    4.7370   -0.1030 hc        1 MOL      0.012212
     30 H11         0.0140    3.6640    2.0400 hc        1 MOL      0.074883
     31 H12        -0.4050    5.0120    2.9290 hc        1 MOL      0.074883
     32 H13        -1.6490    6.9340   -0.2530 hc        1 MOL      0.059452
     33 H14        -1.7470    7.2570    1.4980 hc        1 MOL      0.059452
     34 H15        -0.1470    7.1750    0.7490 hc        1 MOL      0.059452
     35 H16         1.7570    6.0700    1.9760 hc        1 MOL      0.004114
     36 H17         2.0110    4.4290    2.3080 hc        1 MOL      0.004114
     37 H18         1.7350    4.9720    0.6200 hc        1 MOL      0.004114
     38 N3         -3.8510    3.9900   -0.8670 n         1 MOL     -0.495500
     39 C13        -4.8010    4.2010   -1.9690 c3        1 MOL      0.304861
     40 C14        -6.1900    3.4580   -1.7260 c         1 MOL      0.320485
     41 O6         -7.1930    3.9910   -2.2290 o         1 MOL     -0.559458
     42 C15        -4.1810    3.7640   -3.2780 c3        1 MOL     -0.349290
     43 C16        -3.5580    2.3840   -3.2960 c         1 MOL      0.892843
     44 O7         -2.9680    1.9720   -4.3590 o         1 MOL     -0.749371
     45 O8         -3.6860    1.6220   -2.3440 o         1 MOL     -0.749371
     46 H19        -3.5020    3.0630   -0.6840 hn        1 MOL      0.322692
     47 H20        -5.0780    5.2550   -2.0240 h1        1 MOL      0.028844
     48 H21        -3.3140    4.3770   -3.4990 hc        1 MOL      0.065985
     49 H22        -4.8870    3.7500   -4.1110 hc        1 MOL      0.065985
     50 N4         -6.2910    2.3610   -0.9450 n         1 MOL     -0.019223
     51 C17        -7.5930    1.7150   -0.3480 c3        1 MOL     -0.132841
     52 C18        -7.9920    0.3910   -1.0280 c         1 MOL      0.643617
     53 O9         -8.6320    0.3530   -2.0310 o         1 MOL     -0.537153
     54 H23        -5.4400    1.9890   -0.5570 hn        1 MOL      0.080167
     55 H24        -8.4790    2.3330   -0.4380 h1        1 MOL      0.045964
     56 H25        -7.2880    1.5250    0.6840 h1        1 MOL      0.045964
     57 N5         -7.3840   -0.7020   -0.4320 n         1 MOL     -0.627086
     58 C19        -7.6030   -2.0700   -0.9530 c3        1 MOL      0.042715
     59 C20        -7.3040   -3.2030    0.0570 c         1 MOL      0.491951
     60 O10        -7.6290   -4.3360   -0.3340 o         1 MOL     -0.548457
     61 C21        -6.6250   -2.2600   -2.1590 c3        1 MOL     -0.193459
     62 C22        -5.1530   -1.8650   -1.8420 c         1 MOL      0.901296
     63 O11        -4.4020   -1.3930   -2.7100 o         1 MOL     -0.808964
     64 O12        -4.6390   -2.0210   -0.7110 o         1 MOL     -0.808964
     65 H26        -6.7420   -0.5000    0.3220 hn        1 MOL      0.338986
     66 H27        -8.6300   -2.2130   -1.3020 h1        1 MOL      0.084613
     67 H28        -6.9650   -1.6640   -3.0010 hc        1 MOL      0.056491
     68 H29        -6.5330   -3.2740   -2.5500 hc        1 MOL      0.056491
     69 N6         -6.7720   -2.8600    1.3020 n         1 MOL     -0.371131
     70 C23        -6.5280   -3.9100    2.3850 c3        1 MOL      0.013048
     71 C24        -5.0680   -4.3970    2.4150 c         1 MOL      0.487635
     72 O13        -4.7670   -5.4640    2.9990 o         1 MOL     -0.597187
     73 H30        -6.4210   -1.9220    1.4230 hn        1 MOL      0.230014
     74 H31        -7.2240   -4.7390    2.2120 h1        1 MOL      0.051569
     75 H32        -6.7770   -3.5140    3.3690 h1        1 MOL      0.051569
     76 N7         -4.2410   -3.7400    1.6230 n         1 MOL     -0.264812
     77 C25        -2.8400   -4.1750    1.3960 c3        1 MOL      0.004756
     78 C26        -1.8060   -3.0250    1.3190 c         1 MOL      0.415864
     79 O14        -2.0340   -1.8670    0.9860 o         1 MOL     -0.611815
     80 C27        -2.7400   -5.3140    0.3490 c3        1 MOL      0.186880
     81 C28        -3.2980   -5.0190   -1.0950 c3        1 MOL     -0.281682
     82 C29        -2.5000   -4.1160   -2.0600 c         1 MOL      0.631282
     83 N8         -2.4140   -4.4550   -3.3800 n         1 MOL     -0.766335
     84 O15        -1.9470   -3.1080   -1.6760 o         1 MOL     -0.554460
     85 H33        -4.5850   -3.0320    0.9830 hn        1 MOL      0.268117
     86 H34        -2.5330   -4.7130    2.2940 h1        1 MOL      0.035278
     87 H35        -3.1560   -6.2370    0.7500 hc        1 MOL     -0.016801
     88 H36        -1.6750   -5.5360    0.2690 hc        1 MOL     -0.016801
     89 H37        -4.3180   -4.6350   -1.0950 hc        1 MOL      0.071237
     90 H38        -3.2870   -6.0030   -1.5400 hc        1 MOL      0.071237
     91 H39        -2.8040   -5.3500   -3.6460 hn        1 MOL      0.353983
     92 H40        -2.1560   -3.7850   -4.0870 hn        1 MOL      0.353983
     93 N9         -0.5680   -3.2960    1.8020 n         1 MOL     -0.166905
     94 C30         0.6220   -2.4130    1.8510 c3        1 MOL      0.014409
     95 C31         1.7570   -3.0110    1.0540 c         1 MOL      0.161118
     96 O16         2.4220   -4.0610    1.4530 o         1 MOL     -0.520819
     97 C32         1.0590   -2.2520    3.3040 c3        1 MOL      0.178754
     98 C33         2.2190   -1.2880    3.6480 c3        1 MOL     -0.225918
     99 C34        -0.1160   -1.8470    4.2080 c3        1 MOL     -0.225918
    100 H41        -0.5560   -4.2610    2.1180 hn        1 MOL      0.203516
    101 H42         0.4650   -1.3960    1.5040 h1        1 MOL      0.159375
    102 H43         1.3340   -3.2340    3.6990 hc        1 MOL     -0.005018
    103 H44         2.0360   -0.2480    3.3990 hc        1 MOL      0.043741
    104 H45         2.4760   -1.3410    4.7120 hc        1 MOL      0.043741
    105 H46         3.1930   -1.5210    3.2120 hc        1 MOL      0.043741
    106 H47        -0.4820   -0.9100    3.8090 hc        1 MOL      0.043741
    107 H48        -0.9330   -2.5690    4.0940 hc        1 MOL      0.043741
    108 H49         0.1660   -1.9090    5.2590 hc        1 MOL      0.043741
    109 N10         2.0910   -2.3470   -0.1070 n         1 MOL      0.066805
    110 C35         3.2920   -2.7260   -0.9280 c3        1 MOL      0.037398
    111 C36         4.6030   -2.3030   -0.1620 c         1 MOL      0.407352
    112 O17         4.5390   -1.6930    0.9240 o         1 MOL     -0.331924
    113 C37         3.1100   -2.0300   -2.2800 c3        1 MOL     -0.296681
    114 C38         1.9030   -2.5960   -3.0890 c         1 MOL      0.788943
    115 N11         0.7250   -2.0200   -2.8640 n         1 MOL     -0.862454
    116 O18         1.9440   -3.6050   -3.7800 o         1 MOL     -0.623152
    117 H50         1.5920   -1.5150   -0.3920 hn        1 MOL     -0.087337
    118 H51         3.2020   -3.8080   -1.0280 h1        1 MOL      0.086956
    119 H52         4.0150   -2.1030   -2.8950 hc        1 MOL      0.047069
    120 H53         2.9350   -0.9610   -2.1630 hc        1 MOL      0.047069
    121 H54         0.6680   -1.1910   -2.2860 hn        1 MOL      0.385919
    122 H55        -0.0690   -2.5670   -3.1610 hn        1 MOL      0.385919
    123 N12         5.7330   -2.6430   -0.7870 n         1 MOL     -0.570190
    124 C39         6.9330   -1.9030   -0.3030 c3        1 MOL      0.238450
    125 C40         6.9200   -0.3680   -0.4780 c         1 MOL      0.507129
    126 O19         7.4090    0.3270    0.4090 o         1 MOL     -0.493517
    127 C41         8.1800   -2.5570   -0.8880 c3        1 MOL     -0.124651
    128 C42         9.4130   -1.8830   -0.3510 ca        1 MOL     -0.009815
    129 C43         9.8480   -2.1670    0.9390 ca        1 MOL     -0.070238
    130 C44        10.1880   -1.0680   -1.2380 ca        1 MOL     -0.070238
    131 C45        11.0180   -1.4310    1.4190 ca        1 MOL     -0.398898
    132 C46        11.3990   -0.4830   -0.8070 ca        1 MOL     -0.398898
    133 C47        11.7220   -0.5480    0.5750 ca        1 MOL      0.486108
    134 O20        12.8000    0.2220    1.0550 oh        1 MOL     -0.568971
    135 H56         5.7670   -3.1560   -1.6540 hn        1 MOL      0.342004
    136 H57         7.0550   -2.1230    0.7580 h1        1 MOL      0.071773
    137 H58         8.1550   -2.4630   -1.9790 hc        1 MOL      0.030950
    138 H59         8.2600   -3.6070   -0.6170 hc        1 MOL      0.030950
    139 H60         9.2220   -2.6660    1.6710 ha        1 MOL      0.129164
    140 H61         9.9650   -0.9420   -2.2900 ha        1 MOL      0.129164
    141 H62        11.2650   -1.4650    2.4600 ha        1 MOL      0.179594
    142 H63        11.9690    0.1830   -1.4310 ha        1 MOL      0.179594
    143 H64        13.3020    0.6890    0.3880 ho        1 MOL      0.378257
    144 N13         6.2630    0.1570   -1.5000 n         1 MOL     -0.359582
    145 C48         6.2440    1.5960   -1.7630 c3        1 MOL     -0.108662
    146 C49         5.2930    2.3010   -0.7500 c         1 MOL      0.461766
    147 O21         5.4410    3.5000   -0.6690 o         1 MOL     -0.520212
    148 C50         5.9320    1.9990   -3.2210 c3        1 MOL     -0.064019
    149 C51         4.5320    1.6140   -3.7370 c3        1 MOL     -0.160116
    150 C52         4.2710    1.9980   -5.2220 c         1 MOL      0.694278
    151 O22         3.7300    3.1480   -5.3310 o         1 MOL     -0.725873
    152 O23         4.6020    1.3170   -6.1760 o         1 MOL     -0.725873
    153 H65         6.0020   -0.5340   -2.1870 hn        1 MOL      0.273181
    154 H66         7.2380    1.9950   -1.5690 h1        1 MOL      0.092925
    155 H67         6.6920    1.5760   -3.8810 hc        1 MOL      0.051502
    156 H68         6.0040    3.0770   -3.2960 hc        1 MOL      0.051502
    157 H69         3.7800    2.1330   -3.1520 hc        1 MOL      0.030967
    158 H70         4.3970    0.5420   -3.5630 hc        1 MOL      0.030967
    159 N14         4.4630    1.5990    0.0320 n         1 MOL     -0.114056
    160 C53         3.6300    2.1210    1.1310 c3        1 MOL     -0.006489
    161 C54         4.3730    1.9390    2.4550 c         1 MOL      0.428082
    162 O24         4.4000    2.8120    3.3240 o         1 MOL     -0.533609
    163 C55         2.2890    1.3740    1.0270 c3        1 MOL      0.062341
    164 C56         1.6390    1.7430   -0.3120 c3        1 MOL      0.035992
    165 C57         0.2330    1.0770   -0.3790 c         1 MOL      0.500758
    166 O25        -0.8600    1.7340   -0.3320 o         1 MOL     -0.595601
    167 O26         0.1770   -0.1540   -0.6210 o         1 MOL     -0.595601
    168 H71         4.4380    0.5950   -0.0520 hn        1 MOL      0.005432
    169 H72         3.4840    3.1780    0.9020 h1        1 MOL      0.058251
    170 H73         1.6720    1.5000    1.9180 hc        1 MOL      0.093084
    171 H74         2.5600    0.3210    0.9660 hc        1 MOL      0.093084
    172 H75         2.2020    1.4660   -1.2000 hc        1 MOL      0.046909
    173 H76         1.5660    2.8150   -0.4900 hc        1 MOL      0.046909
    174 N15         5.1140    0.8030    2.5570 n         1 MOL      0.000010
    175 C58         5.8750    0.3560    3.7060 c3        1 MOL     -0.239653
    176 H77         6.6970    1.0480    3.8890 h1        1 MOL      0.091643
    177 H78         5.2270    0.3230    4.5820 h1        1 MOL      0.091643
    178 H79         6.2760   -0.6390    3.5120 h1        1 MOL      0.091643
    179 H80         5.0270    0.1540    1.7870 hn        1 MOL     -0.086216
    180 Ca1        -2.4870   -0.4260   -1.1610 Ca        1 MOL      1.759076
    181 O27        -1.6080   -0.1060   -3.6720 oh        1 MOL     -0.884069
    182 H81        -1.7280   -0.8110   -4.3030 ho        1 MOL      0.414167
    183 H82        -2.0830    0.6380   -4.0330 ho        1 MOL      0.414167
@<TRIPOS>BOND
     1    1    2 1   
     2    1    4 1   
     3    1    5 1   
     4    1    6 1   
     5    2    3 2   
     6    2    7 1   
     7    7    8 1   
     8    7   15 1   
     9    8    9 1   
    10    8   11 1   
    11    8   16 1   
    12    9   10 2   
    13    9   19 1   
    14   11   12 1   
    15   11   17 1   
    16   11   18 1   
    17   12   13 1   
    18   12   14 1   
    19   19   20 1   
    20   19   27 1   
    21   20   21 1   
    22   20   23 1   
    23   20   28 1   
    24   21   22 2   
    25   21   38 1   
    26   23   24 1   
    27   23   25 1   
    28   23   29 1   
    29   24   26 1   
    30   24   30 1   
    31   24   31 1   
    32   25   32 1   
    33   25   33 1   
    34   25   34 1   
    35   26   35 1   
    36   26   36 1   
    37   26   37 1   
    38   38   39 1   
    39   38   46 1   
    40   39   40 1   
    41   39   42 1   
    42   39   47 1   
    43   40   41 2   
    44   40   50 1   
    45   42   43 1   
    46   42   48 1   
    47   42   49 1   
    48   43   44 1   
    49   43   45 1   
    50   50   51 1   
    51   50   54 1   
    52   51   52 1   
    53   51   55 1   
    54   51   56 1   
    55   52   53 2   
    56   52   57 1   
    57   57   58 1   
    58   57   65 1   
    59   58   59 1   
    60   58   61 1   
    61   58   66 1   
    62   59   60 2   
    63   59   69 1   
    64   61   62 1   
    65   61   67 1   
    66   61   68 1   
    67   62   63 1   
    68   62   64 1   
    69   69   70 1   
    70   69   73 1   
    71   70   71 1   
    72   70   74 1   
    73   70   75 1   
    74   71   72 2   
    75   71   76 1   
    76   76   77 1   
    77   76   85 1   
    78   77   78 1   
    79   77   80 1   
    80   77   86 1   
    81   78   79 2   
    82   78   93 1   
    83   80   81 1   
    84   80   87 1   
    85   80   88 1   
    86   81   82 1   
    87   81   89 1   
    88   81   90 1   
    89   82   83 1   
    90   82   84 2   
    91   83   91 1   
    92   83   92 1   
    93   93   94 1   
    94   93  100 1   
    95   94   95 1   
    96   94   97 1   
    97   94  101 1   
    98   95   96 2   
    99   95  109 1   
   100   97   98 1   
   101   97   99 1   
   102   97  102 1   
   103   98  103 1   
   104   98  104 1   
   105   98  105 1   
   106   99  106 1   
   107   99  107 1   
   108   99  108 1   
   109  109  110 1   
   110  109  117 1   
   111  110  111 1   
   112  110  113 1   
   113  110  118 1   
   114  111  112 2   
   115  111  123 1   
   116  113  114 1   
   117  113  119 1   
   118  113  120 1   
   119  114  115 1   
   120  114  116 2   
   121  115  121 1   
   122  115  122 1   
   123  123  124 1   
   124  123  135 1   
   125  124  125 1   
   126  124  127 1   
   127  124  136 1   
   128  125  126 2   
   129  125  144 1   
   130  127  128 1   
   131  127  137 1   
   132  127  138 1   
   133  128  129 ar  
   134  128  130 ar  
   135  129  131 ar  
   136  129  139 1   
   137  130  132 ar  
   138  130  140 1   
   139  131  133 ar  
   140  131  141 1   
   141  132  133 ar  
   142  132  142 1   
   143  133  134 1   
   144  134  143 1   
   145  144  145 1   
   146  144  153 1   
   147  145  146 1   
   148  145  148 1   
   149  145  154 1   
   150  146  147 2   
   151  146  159 1   
   152  148  149 1   
   153  148  155 1   
   154  148  156 1   
   155  149  150 1   
   156  149  157 1   
   157  149  158 1   
   158  150  151 1   
   159  150  152 1   
   160  159  160 1   
   161  159  168 1   
   162  160  161 1   
   163  160  163 1   
   164  160  169 1   
   165  161  162 2   
   166  161  174 1   
   167  163  164 1   
   168  163  170 1   
   169  163  171 1   
   170  164  165 1   
   171  164  172 1   
   172  164  173 1   
   173  165  166 1   
   174  165  167 1   
   175  174  175 1   
   176  174  179 1   
   177  175  176 1   
   178  175  177 1   
   179  175  178 1   
   180  181  182 1   
   181  181  183 1   
@<TRIPOS>SUBSTRUCTURE
     1 MOL         1 TEMP              0 ****  ****    0 ROOT
