@<TRIPOS>MOLECULE
MOL
  189   185     1     0     0
SMALL
resp


@<TRIPOS>ATOM
      1 C1          0.1760    3.1320    5.3150 c3        1 MOL     -0.273746
      2 C2         -0.3990    3.0240    3.8600 c         1 MOL      0.608229
      3 O1          0.3380    3.2910    2.9000 o         1 MOL     -0.590157
      4 H1          0.8720    3.9680    5.3680 hc        1 MOL      0.075064
      5 H2         -0.6410    3.2950    6.0180 hc        1 MOL      0.075064
      6 H3          0.6970    2.2090    5.5690 hc        1 MOL      0.075064
      7 N1         -1.6680    2.5980    3.6840 n         1 MOL     -0.574384
      8 C3         -2.2580    2.0760    2.3860 c3        1 MOL      0.314379
      9 C4         -3.0470    3.1770    1.7110 c         1 MOL      0.322720
     10 O2         -4.2460    3.2260    1.8910 o         1 MOL     -0.431254
     11 C5         -3.1520    0.8610    2.7950 c3        1 MOL     -0.288622
     12 C6         -3.8400    0.0950    1.6060 c         1 MOL      0.694869
     13 O3         -3.3890    0.1620    0.4530 o         1 MOL     -0.657299
     14 O4         -4.9000   -0.5260    1.9470 o         1 MOL     -0.657299
     15 H4         -2.1500    2.3140    4.5260 hn        1 MOL      0.318355
     16 H5         -1.4130    1.8590    1.7320 h1        1 MOL     -0.018152
     17 H6         -3.8410    1.3550    3.4690 hc        1 MOL      0.075492
     18 H7         -2.4990    0.1690    3.3370 hc        1 MOL      0.075492
     19 N2         -2.4350    3.9960    0.8820 n         1 MOL     -0.286955
     20 C7         -2.8930    5.2970    0.2950 c3        1 MOL     -0.150486
     21 C8         -3.9070    5.1090   -0.8640 c         1 MOL      0.559919
     22 O5         -4.6590    6.0440   -1.0690 o         1 MOL     -0.574367
     23 C9         -1.6850    5.9390   -0.3610 c3        1 MOL     -0.167238
     24 C10        -0.6860    6.6560    0.5630 c3        1 MOL      0.285444
     25 C11         0.4080    7.4120   -0.1950 c3        1 MOL      0.010075
     26 C12         1.2270    8.3470    0.6880 c3        1 MOL     -0.019330
     27 N3          1.6440    7.6740    1.9820 n4        1 MOL     -0.234273
     28 H8         -1.4290    3.8880    0.8260 hn        1 MOL      0.268190
     29 H9         -3.4180    5.7970    1.1080 h1        1 MOL      0.148549
     30 H10        -2.0540    6.7320   -1.0050 hc        1 MOL      0.069699
     31 H11        -1.2850    5.2140   -1.0730 hc        1 MOL      0.069699
     32 H12        -0.1860    5.9230    1.1890 hc        1 MOL     -0.073294
     33 H13        -1.2230    7.3510    1.2110 hc        1 MOL     -0.073294
     34 H14        -0.0010    7.9030   -1.0840 hc        1 MOL      0.020748
     35 H15         1.1210    6.6410   -0.5100 hc        1 MOL      0.020748
     36 H16         0.6430    9.2630    0.8360 hx        1 MOL      0.081937
     37 H17         2.1690    8.5930    0.1960 hx        1 MOL      0.081937
     38 H18         2.1340    6.8160    1.7950 hn        1 MOL      0.295562
     39 H19         2.1910    8.3740    2.4690 hn        1 MOL      0.295562
     40 H20         0.8630    7.3770    2.5480 hn        1 MOL      0.295562
     41 N4         -3.9940    3.9320   -1.4760 n         1 MOL     -0.263798
     42 C13        -5.0020    3.5900   -2.4750 c3        1 MOL      0.003077
     43 C14        -6.1050    2.6670   -1.9520 c         1 MOL      0.391545
     44 O6         -7.0140    2.3110   -2.6710 o         1 MOL     -0.509008
     45 C15        -4.3470    3.0740   -3.7790 c3        1 MOL     -0.321960
     46 C16        -3.3290    2.0100   -3.5710 c         1 MOL      0.767085
     47 O7         -3.2060    1.3640   -2.5120 o         1 MOL     -0.673305
     48 O8         -2.4700    1.8390   -4.4720 o         1 MOL     -0.673305
     49 H21        -3.3510    3.2140   -1.1870 hn        1 MOL      0.236523
     50 H22        -5.4920    4.5360   -2.7310 h1        1 MOL      0.106602
     51 H23        -3.8980    3.8930   -4.3360 hc        1 MOL      0.097728
     52 H24        -5.1410    2.6650   -4.3990 hc        1 MOL      0.097728
     53 N5         -5.9510    2.2340   -0.7130 n         1 MOL      0.014242
     54 C17        -6.9680    1.5890    0.0880 c3        1 MOL     -0.267903
     55 C18        -7.4000    0.2950   -0.4600 c         1 MOL      0.528408
     56 O9         -8.6210    0.0580   -0.4240 o         1 MOL     -0.572377
     57 H25        -5.0730    2.4660   -0.2710 hn        1 MOL     -0.029354
     58 H26        -7.8830    2.1770    0.1760 h1        1 MOL      0.129319
     59 H27        -6.4310    1.4440    1.0200 h1        1 MOL      0.129319
     60 N6         -6.5060   -0.5070   -1.0800 n         1 MOL     -0.142472
     61 C19        -6.9110   -1.8370   -1.5640 c3        1 MOL     -0.090640
     62 C20        -6.9390   -2.8580   -0.4680 c         1 MOL      0.385759
     63 O10        -7.4910   -3.9660   -0.7020 o         1 MOL     -0.531629
     64 C21        -5.9660   -2.3020   -2.7660 c3        1 MOL     -0.154474
     65 C22        -4.4990   -2.0450   -2.5610 c         1 MOL      0.725334
     66 O11        -3.9160   -2.4280   -1.5370 o         1 MOL     -0.695752
     67 O12        -3.7610   -1.5130   -3.4610 o         1 MOL     -0.695752
     68 H28        -5.5630   -0.1880   -0.9510 hn        1 MOL      0.080661
     69 H29        -7.8900   -1.7700   -2.0380 h1        1 MOL      0.141243
     70 H30        -6.2310   -1.7110   -3.6390 hc        1 MOL      0.063297
     71 H31        -6.1910   -3.3400   -2.9730 hc        1 MOL      0.063297
     72 N7         -6.4030   -2.5650    0.7410 n         1 MOL     -0.182676
     73 C23        -6.3530   -3.5570    1.8440 c3        1 MOL     -0.033136
     74 C24        -5.1240   -4.4850    1.6450 c         1 MOL      0.472558
     75 O13        -5.2880   -5.6350    2.0340 o         1 MOL     -0.539417
     76 H32        -5.8590   -1.7240    0.8280 hn        1 MOL      0.184248
     77 H33        -7.3150   -4.0430    1.9800 h1        1 MOL      0.058570
     78 H34        -6.2190   -2.9240    2.7220 h1        1 MOL      0.058570
     79 N8         -4.0300   -4.0110    1.0680 n         1 MOL     -0.165146
     80 C25        -2.7440   -4.7790    1.0510 c3        1 MOL     -0.325013
     81 C26        -1.5230   -3.7680    1.1120 c         1 MOL      0.614716
     82 O14        -1.6710   -2.6300    0.6450 o         1 MOL     -0.651051
     83 C27        -2.6690   -5.6220   -0.2490 c3        1 MOL      0.453994
     84 C28        -3.7320   -6.6780   -0.4080 c3        1 MOL     -0.575612
     85 O15        -2.7520   -4.8050   -1.4330 oh        1 MOL     -0.596992
     86 H35        -3.9430   -3.0390    0.8090 hn        1 MOL      0.254635
     87 H36        -2.7630   -5.4870    1.8850 h1        1 MOL      0.134297
     88 H37        -1.7310   -6.1720   -0.2720 h1        1 MOL     -0.009352
     89 H38        -3.1200   -3.9740   -1.1300 ho        1 MOL      0.367888
     90 H39        -3.6680   -7.3390    0.4650 hc        1 MOL      0.155602
     91 H40        -4.7470   -6.4110   -0.6830 hc        1 MOL      0.155602
     92 H41        -3.3290   -7.2570   -1.2330 hc        1 MOL      0.155602
     93 N9         -0.4410   -4.0240    1.8330 n         1 MOL     -0.513126
     94 C29         0.6390   -3.0110    2.0270 c3        1 MOL      0.090739
     95 C30         1.9070   -3.4390    1.3400 c         1 MOL      0.389666
     96 O16         2.3000   -4.5990    1.5130 o         1 MOL     -0.560879
     97 C31         0.9640   -2.7700    3.5320 c3        1 MOL      0.107011
     98 C32        -0.3610   -2.4140    4.3220 c3        1 MOL      0.242910
     99 C33         2.1070   -1.6890    3.6840 c3        1 MOL     -0.476940
    100 C34        -0.1410   -2.3560    5.8220 c3        1 MOL     -0.074957
    101 H42        -0.3870   -4.8980    2.3370 hn        1 MOL      0.298294
    102 H43         0.3800   -2.0390    1.6090 h1        1 MOL      0.035757
    103 H44         1.3840   -3.6570    3.9940 hc        1 MOL      0.004731
    104 H45        -1.1810   -3.1390    4.2580 hc        1 MOL     -0.038526
    105 H46        -0.7450   -1.4480    4.0110 hc        1 MOL     -0.038526
    106 H47         1.6680   -0.6950    3.6920 hc        1 MOL      0.103377
    107 H48         2.6860   -1.9270    4.5870 hc        1 MOL      0.103377
    108 H49         2.9150   -1.7040    2.9640 hc        1 MOL      0.103377
    109 H50         0.7400   -1.8050    6.1390 hc        1 MOL      0.000396
    110 H51        -1.0160   -1.8570    6.2410 hc        1 MOL      0.000396
    111 H52        -0.0620   -3.3750    6.1770 hc        1 MOL      0.000396
    112 N10         2.4320   -2.5640    0.5460 n         1 MOL      0.034568
    113 C35         3.5580   -2.8940   -0.3070 c3        1 MOL     -0.028206
    114 C36         4.8680   -2.5130    0.4010 c         1 MOL      0.240949
    115 O17         4.9250   -1.6600    1.2690 o         1 MOL     -0.285260
    116 C37         3.4700   -2.3030   -1.7160 c3        1 MOL      0.185023
    117 C38         2.3100   -2.7930   -2.5260 c3        1 MOL     -0.272877
    118 O18         3.2600   -0.9090   -1.7880 oh        1 MOL     -0.570821
    119 H53         1.8830   -1.7660    0.2660 hn        1 MOL      0.208006
    120 H54         3.6350   -3.9820   -0.3610 h1        1 MOL      0.067549
    121 H55         4.3550   -2.5860   -2.2960 h1        1 MOL      0.030158
    122 H56         2.3730   -0.8140   -1.4440 ho        1 MOL      0.411357
    123 H57         2.3420   -3.8760   -2.6890 hc        1 MOL      0.059718
    124 H58         1.3620   -2.6910   -2.0130 hc        1 MOL      0.059718
    125 H59         2.1280   -2.2910   -3.4770 hc        1 MOL      0.059718
    126 N11         6.0460   -3.0790   -0.0070 n         1 MOL     -0.345004
    127 C39         7.3860   -2.5420    0.4030 c3        1 MOL      0.062001
    128 C40         7.3780   -1.0000    0.2720 c         1 MOL      0.034011
    129 O19         7.8270   -0.2570    1.1650 o         1 MOL     -0.467497
    130 C41         8.5460   -3.0180   -0.4880 c3        1 MOL      0.235510
    131 C42         9.1430   -4.3930   -0.2950 c3        1 MOL     -0.448190
    132 O20         8.1590   -2.9010   -1.8320 oh        1 MOL     -0.614177
    133 H60         5.9840   -3.8530   -0.6620 hn        1 MOL      0.281190
    134 H61         7.5150   -2.7740    1.4590 h1        1 MOL      0.122994
    135 H62         9.3760   -2.3440   -0.2610 h1        1 MOL      0.045451
    136 H63         8.9260   -3.0370   -2.3980 ho        1 MOL      0.409068
    137 H64         9.3300   -4.7320    0.7230 hc        1 MOL      0.131640
    138 H65         8.4050   -5.0640   -0.7190 hc        1 MOL      0.131640
    139 H66        10.0520   -4.4240   -0.8970 hc        1 MOL      0.131640
    140 N12         6.8870   -0.4130   -0.8210 n         1 MOL      0.360134
    141 C43         7.0430    1.0120   -1.1170 c3        1 MOL     -0.178446
    142 C44         6.1250    1.8650   -0.3140 c         1 MOL      0.339369
    143 O21         6.4950    2.8930    0.1970 o         1 MOL     -0.515842
    144 C45         6.6690    1.3680   -2.5780 c3        1 MOL     -0.332598
    145 C46         7.4320    0.3900   -3.5680 c3        1 MOL      0.056886
    146 C47         8.9190    0.0420   -3.4080 c3        1 MOL     -0.196418
    147 C48         9.7050    1.3960   -3.0930 c3        1 MOL      0.019071
    148 N13        11.1860    1.1460   -3.1090 n4        1 MOL     -0.158654
    149 H67         6.4960   -1.0680   -1.4890 hn        1 MOL      0.105049
    150 H68         8.0430    1.3180   -0.7950 h1        1 MOL      0.106363
    151 H69         6.8580    2.4250   -2.7690 hc        1 MOL      0.125868
    152 H70         5.6070    1.2490   -2.7950 hc        1 MOL      0.125868
    153 H71         7.2520    0.7870   -4.5640 hc        1 MOL      0.048001
    154 H72         6.8800   -0.5460   -3.5480 hc        1 MOL      0.048001
    155 H73         9.1210   -0.5010   -4.3370 hc        1 MOL      0.052058
    156 H74         8.9930   -0.6610   -2.5740 hc        1 MOL      0.052058
    157 H75         9.3760    1.7150   -2.1010 hx        1 MOL      0.102359
    158 H76         9.4540    2.1180   -3.8610 hx        1 MOL      0.102359
    159 H77        11.7540    1.9620   -2.9180 hn        1 MOL      0.233712
    160 H78        11.3630    0.4970   -2.3610 hn        1 MOL      0.233712
    161 H79        11.4800    0.5930   -3.9010 hn        1 MOL      0.233712
    162 N14         4.8610    1.5300   -0.0360 n         1 MOL     -0.002684
    163 C49         3.8410    2.2110    0.7980 c3        1 MOL     -0.182269
    164 C50         4.2470    2.2200    2.2710 c         1 MOL      0.438096
    165 O22         4.1720    3.2500    2.9600 o         1 MOL     -0.556526
    166 C51         2.5640    1.3940    0.7140 c3        1 MOL      0.019335
    167 C52         1.7000    1.7940   -0.5410 c3        1 MOL     -0.073067
    168 C53         0.5990    0.7800   -0.6630 c         1 MOL      0.794912
    169 O23        -0.5020    1.2280   -0.9450 o         1 MOL     -0.767524
    170 O24         0.8520   -0.4470   -0.8090 o         1 MOL     -0.767524
    171 H80         4.4840    0.6780   -0.4340 hn        1 MOL      0.065147
    172 H81         3.6160    3.1660    0.3280 h1        1 MOL      0.115738
    173 H82         1.8710    1.5530    1.5310 hc        1 MOL      0.019473
    174 H83         2.7660    0.3200    0.6980 hc        1 MOL      0.019473
    175 H84         2.4390    1.7930   -1.3380 hc        1 MOL     -0.001419
    176 H85         1.2810    2.7990   -0.4460 hc        1 MOL     -0.001419
    177 N15         4.7300    1.0810    2.7350 n         1 MOL     -0.075906
    178 C54         5.2390    0.9140    4.1190 c3        1 MOL     -0.230528
    179 H86         5.6610    1.8570    4.4660 h1        1 MOL      0.098424
    180 H87         4.4200    0.6200    4.7750 h1        1 MOL      0.098424
    181 H88         6.0110    0.1450    4.1330 h1        1 MOL      0.098424
    182 H89         4.7340    0.2430    2.1700 hn        1 MOL      0.132765
    183 Ca1        -2.0010   -0.7250   -1.5620 Ca        1 MOL      1.781896
    184 O25        -1.2830   -2.9300   -2.4990 oh        1 MOL     -0.814404
    185 H90        -1.7580   -3.7550   -2.4350 ho        1 MOL      0.390014
    186 H91        -0.5870   -3.1040   -3.1420 ho        1 MOL      0.390014
    187 O26        -0.3840   -0.2720   -3.8650 oh        1 MOL     -0.814404
    188 H92         0.5690   -0.1230   -3.9460 ho        1 MOL      0.390014
    189 H93        -0.7730    0.4130   -4.4150 ho        1 MOL      0.390014
@<TRIPOS>BOND
     1    1    2 1   
     2    1    4 1   
     3    1    5 1   
     4    1    6 1   
     5    2    3 2   
     6    2    7 1   
     7    7    8 1   
     8    7   15 1   
     9    8    9 1   
    10    8   11 1   
    11    8   16 1   
    12    9   10 2   
    13    9   19 1   
    14   11   12 1   
    15   11   17 1   
    16   11   18 1   
    17   12   13 1   
    18   12   14 1   
    19   19   20 1   
    20   19   28 1   
    21   20   21 1   
    22   20   23 1   
    23   20   29 1   
    24   21   22 2   
    25   21   41 1   
    26   23   24 1   
    27   23   30 1   
    28   23   31 1   
    29   24   25 1   
    30   24   32 1   
    31   24   33 1   
    32   25   26 1   
    33   25   34 1   
    34   25   35 1   
    35   26   27 1   
    36   26   36 1   
    37   26   37 1   
    38   27   38 1   
    39   27   39 1   
    40   27   40 1   
    41   41   42 1   
    42   41   49 1   
    43   42   43 1   
    44   42   45 1   
    45   42   50 1   
    46   43   44 2   
    47   43   53 1   
    48   45   46 1   
    49   45   51 1   
    50   45   52 1   
    51   46   47 1   
    52   46   48 1   
    53   53   54 1   
    54   53   57 1   
    55   54   55 1   
    56   54   58 1   
    57   54   59 1   
    58   55   56 2   
    59   55   60 1   
    60   60   61 1   
    61   60   68 1   
    62   61   62 1   
    63   61   64 1   
    64   61   69 1   
    65   62   63 2   
    66   62   72 1   
    67   64   65 1   
    68   64   70 1   
    69   64   71 1   
    70   65   66 1   
    71   65   67 1   
    72   72   73 1   
    73   72   76 1   
    74   73   74 1   
    75   73   77 1   
    76   73   78 1   
    77   74   75 2   
    78   74   79 1   
    79   79   80 1   
    80   79   86 1   
    81   80   81 1   
    82   80   83 1   
    83   80   87 1   
    84   81   82 2   
    85   81   93 1   
    86   83   84 1   
    87   83   85 1   
    88   83   88 1   
    89   84   90 1   
    90   84   91 1   
    91   84   92 1   
    92   85   89 1   
    93   93   94 1   
    94   93  101 1   
    95   94   95 1   
    96   94   97 1   
    97   94  102 1   
    98   95   96 2   
    99   95  112 1   
   100   97   98 1   
   101   97   99 1   
   102   97  103 1   
   103   98  100 1   
   104   98  104 1   
   105   98  105 1   
   106   99  106 1   
   107   99  107 1   
   108   99  108 1   
   109  100  109 1   
   110  100  110 1   
   111  100  111 1   
   112  112  113 1   
   113  112  119 1   
   114  113  114 1   
   115  113  116 1   
   116  113  120 1   
   117  114  115 2   
   118  114  126 1   
   119  116  117 1   
   120  116  118 1   
   121  116  121 1   
   122  117  123 1   
   123  117  124 1   
   124  117  125 1   
   125  118  122 1   
   126  126  127 1   
   127  126  133 1   
   128  127  128 1   
   129  127  130 1   
   130  127  134 1   
   131  128  129 2   
   132  128  140 1   
   133  130  131 1   
   134  130  132 1   
   135  130  135 1   
   136  131  137 1   
   137  131  138 1   
   138  131  139 1   
   139  132  136 1   
   140  140  141 1   
   141  140  149 1   
   142  141  142 1   
   143  141  144 1   
   144  141  150 1   
   145  142  143 2   
   146  142  162 1   
   147  144  145 1   
   148  144  151 1   
   149  144  152 1   
   150  145  146 1   
   151  145  153 1   
   152  145  154 1   
   153  146  147 1   
   154  146  155 1   
   155  146  156 1   
   156  147  148 1   
   157  147  157 1   
   158  147  158 1   
   159  148  159 1   
   160  148  160 1   
   161  148  161 1   
   162  162  163 1   
   163  162  171 1   
   164  163  164 1   
   165  163  166 1   
   166  163  172 1   
   167  164  165 2   
   168  164  177 1   
   169  166  167 1   
   170  166  173 1   
   171  166  174 1   
   172  167  168 1   
   173  167  175 1   
   174  167  176 1   
   175  168  169 1   
   176  168  170 1   
   177  177  178 1   
   178  177  182 1   
   179  178  179 1   
   180  178  180 1   
   181  178  181 1   
   182  184  185 1   
   183  184  186 1   
   184  187  188 1   
   185  187  189 1   
@<TRIPOS>SUBSTRUCTURE
     1 MOL         1 TEMP              0 ****  ****    0 ROOT
