@<TRIPOS>MOLECULE
MOL
  178   175     1     0     0
SMALL
resp


@<TRIPOS>ATOM
      1 C1          0.3910   -2.4420    5.9730 c3        1 MOL     -0.339828
      2 C2          0.6840   -2.4480    4.4360 c         1 MOL      0.789153
      3 O1          0.0070   -3.1610    3.7330 o         1 MOL     -0.585234
      4 H1         -0.1760   -3.3340    6.2380 hc        1 MOL      0.083962
      5 H2          1.3320   -2.4350    6.5220 hc        1 MOL      0.083962
      6 H3         -0.1870   -1.5540    6.2310 hc        1 MOL      0.083962
      7 N1          1.6630   -1.6080    3.9220 n         1 MOL     -0.719670
      8 C3          2.0630   -1.6290    2.4980 c3        1 MOL      0.204074
      9 C4          2.3400   -3.0800    2.0060 c         1 MOL      0.471489
     10 O2          3.3140   -3.7260    2.4880 o         1 MOL     -0.538000
     11 C5          3.1550   -0.5600    2.2550 c3        1 MOL     -0.144836
     12 C6          3.3700   -0.3510    0.7340 c         1 MOL      0.016733
     13 O3          4.3240    0.4110    0.3590 o         1 MOL     -0.393997
     14 O4          2.7130   -0.9960   -0.1230 o         1 MOL     -0.393997
     15 H4          2.0510   -0.8250    4.4350 hn        1 MOL      0.323678
     16 H5          1.1420   -1.3660    1.9610 h1        1 MOL      0.016151
     17 H6          4.1770   -0.8180    2.5010 hc        1 MOL      0.096236
     18 H7          2.7600    0.3250    2.7500 hc        1 MOL      0.096236
     19 N2          1.6410   -3.5920    1.0070 n         1 MOL     -0.269264
     20 C7          1.8440   -4.9510    0.4900 c3        1 MOL      0.190670
     21 C8          3.0390   -4.9860   -0.4890 c         1 MOL      0.408260
     22 O5          3.3610   -6.0250   -1.0290 o         1 MOL     -0.572202
     23 C9          0.4960   -5.4400   -0.1130 c3        1 MOL     -0.314634
     24 H8          0.8550   -3.0740    0.6390 hn        1 MOL      0.354016
     25 H9          2.1880   -5.5630    1.3280 h1        1 MOL      0.034862
     26 H10         0.2100   -4.9620   -1.0540 hc        1 MOL      0.083804
     27 H11         0.5130   -6.5260   -0.1360 hc        1 MOL      0.083804
     28 H12        -0.3090   -5.1360    0.5590 hc        1 MOL      0.083804
     29 N3          3.6750   -3.8330   -0.6600 n         1 MOL      0.230604
     30 C10         4.8690   -3.6810   -1.4520 c3        1 MOL      0.018047
     31 C11         6.1170   -3.3060   -0.5970 c         1 MOL      0.270396
     32 O6          7.2510   -3.6440   -0.9150 o         1 MOL     -0.500215
     33 C12         4.7280   -2.5820   -2.5320 c3        1 MOL     -0.015025
     34 C13         3.4430   -2.6930   -3.3550 c         1 MOL      0.627744
     35 O7          3.3790   -3.4740   -4.3090 o         1 MOL     -0.697041
     36 O8          2.4970   -1.9140   -3.1800 o         1 MOL     -0.697041
     37 H13         3.3470   -3.1250   -0.0150 hn        1 MOL     -0.396206
     38 H14         5.1060   -4.6000   -1.9950 h1        1 MOL      0.064200
     39 H15         5.6600   -2.6190   -3.1160 hc        1 MOL     -0.007587
     40 H16         4.7150   -1.6080   -2.0410 hc        1 MOL     -0.007587
     41 N4          5.8860   -2.6630    0.5530 n         1 MOL      0.090829
     42 C14         6.8640   -2.3080    1.5900 c3        1 MOL     -0.270653
     43 C15         7.5250   -0.8860    1.4140 c         1 MOL      0.520115
     44 O9          8.4540   -0.5500    2.1530 o         1 MOL     -0.560274
     45 H17         4.9120   -2.5470    0.7810 hn        1 MOL     -0.002307
     46 H18         7.6170   -3.0890    1.6850 h1        1 MOL      0.127338
     47 H19         6.2780   -2.3160    2.5050 h1        1 MOL      0.127338
     48 N5          6.9690   -0.0050    0.5260 n         1 MOL     -0.311566
     49 C16         7.6480    1.2080    0.1730 c3        1 MOL     -0.150118
     50 C17         7.1990    2.5110    0.9010 c         1 MOL      0.405047
     51 O10         7.8510    3.5780    0.8110 o         1 MOL     -0.520661
     52 C18         7.2430    1.5100   -1.3020 c3        1 MOL     -0.099800
     53 C19         7.5380    0.3850   -2.3290 c         1 MOL      0.615234
     54 N6          6.8160    0.3750   -3.4150 n         1 MOL     -0.782370
     55 O11         8.5170   -0.3870   -2.1790 o         1 MOL     -0.549473
     56 H20         6.0820   -0.1820    0.0800 hn        1 MOL      0.401262
     57 H21         8.7370    1.1290    0.2590 h1        1 MOL      0.160027
     58 H22         7.8590    2.3260   -1.6620 hc        1 MOL      0.031764
     59 H23         6.1800    1.7830   -1.2910 hc        1 MOL      0.031764
     60 H24         6.2150    1.1240   -3.7290 hn        1 MOL      0.362816
     61 H25         6.9840   -0.3600   -4.0870 hn        1 MOL      0.362816
     62 N7          6.1570    2.4570    1.7760 n         1 MOL     -0.151385
     63 C20         5.5840    3.5800    2.5210 c3        1 MOL     -0.232804
     64 C21         4.6110    4.4990    1.7490 c         1 MOL      0.462978
     65 O12         4.4160    5.7280    2.0130 o         1 MOL     -0.559982
     66 H26         5.7540    1.5350    1.8580 hn        1 MOL      0.162287
     67 H27         6.3290    4.2530    2.9500 h1        1 MOL      0.118423
     68 H28         5.1440    3.0350    3.3530 h1        1 MOL      0.118423
     69 N8          3.9530    3.9570    0.7320 n         1 MOL     -0.075743
     70 C22         2.7140    4.4530    0.1550 c3        1 MOL      0.082468
     71 C23         1.6040    3.3920    0.2970 c         1 MOL      0.200768
     72 O13         1.8600    2.1890    0.2600 o         1 MOL     -0.322029
     73 C24         2.8180    4.8990   -1.3280 c3        1 MOL      0.206104
     74 C25         3.8640    5.9810   -1.5520 c3        1 MOL     -0.541384
     75 O14         3.1530    3.7870   -2.1500 oh        1 MOL     -0.598468
     76 H29         4.0170    2.9710    0.5210 hn        1 MOL      0.110030
     77 H30         2.4750    5.3330    0.7640 h1        1 MOL      0.049190
     78 H31         1.8030    5.2210   -1.5960 h1        1 MOL      0.023473
     79 H32         2.9050    4.0810   -3.0290 ho        1 MOL      0.430079
     80 H33         3.7260    6.3850   -2.5560 hc        1 MOL      0.153194
     81 H34         3.7120    6.6580   -0.7050 hc        1 MOL      0.153194
     82 H35         4.8620    5.5640   -1.4150 hc        1 MOL      0.153194
     83 N9          0.3750    3.7930    0.4020 n         1 MOL     -0.243441
     84 C26        -0.7970    2.8060    0.6410 c3        1 MOL      0.024903
     85 C27        -2.0290    2.9080   -0.1840 c         1 MOL      0.347277
     86 O15        -2.6610    3.9870   -0.2350 o         1 MOL     -0.569344
     87 C28        -1.1670    2.5440    2.1250 c3        1 MOL      0.042848
     88 C29        -1.6400    3.8390    2.7540 c3        1 MOL     -0.120297
     89 C30         0.0470    2.0320    2.9240 c3        1 MOL     -0.193629
     90 C31        -2.1570    3.6890    4.1730 c3        1 MOL     -0.027199
     91 H36         0.2480    4.7930    0.5100 hn        1 MOL      0.241870
     92 H37        -0.3140    1.8950    0.2980 h1        1 MOL      0.035235
     93 H38        -1.9200    1.7520    2.1990 hc        1 MOL      0.062314
     94 H39        -2.4810    4.2350    2.1980 hc        1 MOL      0.043657
     95 H40        -0.8980    4.6340    2.6440 hc        1 MOL      0.043657
     96 H41         0.8860    2.7160    2.8450 hc        1 MOL      0.053779
     97 H42        -0.1830    1.8310    3.9650 hc        1 MOL      0.053779
     98 H43         0.3800    1.1230    2.4170 hc        1 MOL      0.053779
     99 H44        -2.5890    4.6330    4.5000 hc        1 MOL      0.004148
    100 H45        -2.8990    2.9000    4.2660 hc        1 MOL      0.004148
    101 H46        -1.3490    3.6090    4.9000 hc        1 MOL      0.004148
    102 N10        -2.3360    1.8620   -0.8950 n         1 MOL     -0.037155
    103 C32        -3.5440    1.6080   -1.7220 c3        1 MOL     -0.013056
    104 C33        -4.8240    1.4410   -0.8770 c         1 MOL      0.555790
    105 O16        -4.7560    1.0260    0.2860 o         1 MOL     -0.399502
    106 C34        -3.2570    0.3640   -2.6130 c3        1 MOL     -0.273414
    107 C35        -1.8660    0.4850   -3.3630 c         1 MOL      0.766270
    108 O17        -0.9450   -0.3610   -3.2180 o         1 MOL     -0.725056
    109 O18        -1.7290    1.4720   -4.1450 o         1 MOL     -0.725056
    110 H47        -1.8260    1.0800   -0.5280 hn        1 MOL      0.124223
    111 H48        -3.6690    2.4570   -2.3940 h1        1 MOL      0.056065
    112 H49        -4.0490    0.2770   -3.3560 hc        1 MOL      0.081254
    113 H50        -3.2820   -0.4720   -1.9240 hc        1 MOL      0.081254
    114 N11        -6.0420    1.6070   -1.4220 n         1 MOL     -0.750105
    115 C36        -7.2990    1.2380   -0.8370 c3        1 MOL      0.543395
    116 C37        -7.3980   -0.1160   -0.1420 c         1 MOL      0.317754
    117 O19        -7.8640   -0.1650    0.9620 o         1 MOL     -0.454408
    118 C38        -8.3770    1.3300   -1.9220 c3        1 MOL     -0.279031
    119 C39        -9.7970    0.9590   -1.5450 ca        1 MOL      0.198476
    120 C40       -10.3120    1.4700   -0.2950 ca        1 MOL     -0.248500
    121 C41       -10.7060    0.1950   -2.3600 ca        1 MOL     -0.248500
    122 C42       -11.6280    1.1490    0.1380 ca        1 MOL     -0.020455
    123 C43       -12.0140   -0.0030   -1.9650 ca        1 MOL     -0.020455
    124 C44       -12.4460    0.5420   -0.7790 ca        1 MOL     -0.188795
    125 H51        -6.0630    1.8400   -2.4110 hn        1 MOL      0.335490
    126 H52        -7.5540    2.0060   -0.1190 h1        1 MOL      0.029368
    127 H53        -8.0480    0.7650   -2.7930 hc        1 MOL      0.063673
    128 H54        -8.6010    2.3710   -2.1630 hc        1 MOL      0.063673
    129 H55        -9.6940    2.0830    0.3450 ha        1 MOL      0.120637
    130 H56       -10.4090   -0.0300   -3.3680 ha        1 MOL      0.120637
    131 H57       -12.0200    1.5120    1.0820 ha        1 MOL      0.096367
    132 H58       -12.7420   -0.4070   -2.6620 ha        1 MOL      0.096367
    133 H59       -13.4870    0.3340   -0.5690 ha        1 MOL      0.095681
    134 N12        -6.8680   -1.2180   -0.7600 n         1 MOL     -0.194934
    135 C45        -6.8490   -2.4850   -0.0390 c3        1 MOL      0.168101
    136 C46        -5.9990   -2.4450    1.2600 c         1 MOL      0.281029
    137 O20        -6.4690   -3.0310    2.2320 o         1 MOL     -0.514569
    138 C47        -6.3290   -3.5410   -1.0270 c3        1 MOL     -0.024150
    139 C48        -5.9850   -2.6760   -2.3010 c3        1 MOL     -0.022736
    140 C49        -6.7440   -1.3780   -2.2340 c3        1 MOL      0.023602
    141 H60        -7.8630   -2.7520    0.2650 h1        1 MOL      0.021272
    142 H61        -5.4460   -3.9940   -0.5850 hc        1 MOL      0.019058
    143 H62        -7.0710   -4.3210   -1.2180 hc        1 MOL      0.019058
    144 H63        -4.9120   -2.5060   -2.2560 hc        1 MOL      0.015986
    145 H64        -6.2020   -3.1970   -3.2440 hc        1 MOL      0.015986
    146 H65        -6.1390   -0.5980   -2.6920 h1        1 MOL      0.024887
    147 H66        -7.7050   -1.5340   -2.7190 h1        1 MOL      0.024887
    148 N13        -4.8110   -1.8580    1.2680 n         1 MOL     -0.039012
    149 C50        -3.8020   -1.5660    2.2870 c3        1 MOL     -0.348807
    150 C51        -4.2980   -0.5230    3.2640 c         1 MOL      0.549969
    151 O21        -3.8550   -0.4920    4.4310 o         1 MOL     -0.570535
    152 C52        -2.4690   -1.0990    1.6720 c3        1 MOL      0.158020
    153 C53        -1.8510   -2.0820    0.6500 c3        1 MOL     -0.036129
    154 C54        -0.7130   -1.5130   -0.1840 c         1 MOL      0.608861
    155 O22        -0.6650   -0.2380   -0.2390 o         1 MOL     -0.669541
    156 O23         0.0770   -2.2050   -0.8980 o         1 MOL     -0.669541
    157 H67        -4.5430   -1.5070    0.3510 hn        1 MOL      0.166142
    158 H68        -3.6660   -2.5120    2.8090 h1        1 MOL      0.167160
    159 H69        -1.6610   -1.0480    2.3960 hc        1 MOL      0.005907
    160 H70        -2.6620   -0.1150    1.2450 hc        1 MOL      0.005907
    161 H71        -2.6800   -2.3360   -0.0150 hc        1 MOL     -0.008734
    162 H72        -1.5670   -3.0310    1.1230 hc        1 MOL     -0.008734
    163 N14        -5.3250    0.2790    2.8700 n         1 MOL     -0.043631
    164 C55        -6.0490    1.1450    3.8060 c3        1 MOL     -0.260260
    165 H73        -6.5090    0.5340    4.5840 h1        1 MOL      0.095122
    166 H74        -5.3530    1.8490    4.2630 h1        1 MOL      0.095122
    167 H75        -6.8230    1.6940    3.2700 h1        1 MOL      0.095122
    168 H76        -5.4820    0.3280    1.8780 hn        1 MOL      0.014725
    169 Ca1         1.2450   -0.0240   -1.9890 Ca        1 MOL      1.693258
    170 O24         1.9560    0.3560   -4.8100 oh        1 MOL     -0.837814
    171 H77         2.2580    0.5300   -5.7040 ho        1 MOL      0.396073
    172 H78         1.7880   -0.5920   -4.8020 ho        1 MOL      0.396073
    173 O25         3.7560    1.2090   -2.1360 oh        1 MOL     -0.837814
    174 H79         3.6110    2.1520   -2.0960 ho        1 MOL      0.396073
    175 H80         3.9990    0.9700   -1.2450 ho        1 MOL      0.396073
    176 O26         0.5110    2.6400   -2.7390 oh        1 MOL     -0.837814
    177 H81         1.0810    2.9360   -3.4550 ho        1 MOL      0.396073
    178 H82        -0.3580    2.6050   -3.1370 ho        1 MOL      0.396073
@<TRIPOS>BOND
     1    1    2 1   
     2    1    4 1   
     3    1    5 1   
     4    1    6 1   
     5    2    3 2   
     6    2    7 1   
     7    7    8 1   
     8    7   15 1   
     9    8    9 1   
    10    8   11 1   
    11    8   16 1   
    12    9   10 2   
    13    9   19 1   
    14   11   12 1   
    15   11   17 1   
    16   11   18 1   
    17   12   13 1   
    18   12   14 1   
    19   19   20 1   
    20   19   24 1   
    21   20   21 1   
    22   20   23 1   
    23   20   25 1   
    24   21   22 2   
    25   21   29 1   
    26   23   26 1   
    27   23   27 1   
    28   23   28 1   
    29   29   30 1   
    30   29   37 1   
    31   30   31 1   
    32   30   33 1   
    33   30   38 1   
    34   31   32 2   
    35   31   41 1   
    36   33   34 1   
    37   33   39 1   
    38   33   40 1   
    39   34   35 1   
    40   34   36 1   
    41   41   42 1   
    42   41   45 1   
    43   42   43 1   
    44   42   46 1   
    45   42   47 1   
    46   43   44 2   
    47   43   48 1   
    48   48   49 1   
    49   48   56 1   
    50   49   50 1   
    51   49   52 1   
    52   49   57 1   
    53   50   51 2   
    54   50   62 1   
    55   52   53 1   
    56   52   58 1   
    57   52   59 1   
    58   53   54 1   
    59   53   55 2   
    60   54   60 1   
    61   54   61 1   
    62   62   63 1   
    63   62   66 1   
    64   63   64 1   
    65   63   67 1   
    66   63   68 1   
    67   64   65 2   
    68   64   69 1   
    69   69   70 1   
    70   69   76 1   
    71   70   71 1   
    72   70   73 1   
    73   70   77 1   
    74   71   72 2   
    75   71   83 1   
    76   73   74 1   
    77   73   75 1   
    78   73   78 1   
    79   74   80 1   
    80   74   81 1   
    81   74   82 1   
    82   75   79 1   
    83   83   84 1   
    84   83   91 1   
    85   84   85 1   
    86   84   87 1   
    87   84   92 1   
    88   85   86 2   
    89   85  102 1   
    90   87   88 1   
    91   87   89 1   
    92   87   93 1   
    93   88   90 1   
    94   88   94 1   
    95   88   95 1   
    96   89   96 1   
    97   89   97 1   
    98   89   98 1   
    99   90   99 1   
   100   90  100 1   
   101   90  101 1   
   102  102  103 1   
   103  102  110 1   
   104  103  104 1   
   105  103  106 1   
   106  103  111 1   
   107  104  105 2   
   108  104  114 1   
   109  106  107 1   
   110  106  112 1   
   111  106  113 1   
   112  107  108 1   
   113  107  109 1   
   114  114  115 1   
   115  114  125 1   
   116  115  116 1   
   117  115  118 1   
   118  115  126 1   
   119  116  117 2   
   120  116  134 1   
   121  118  119 1   
   122  118  127 1   
   123  118  128 1   
   124  119  120 ar  
   125  119  121 ar  
   126  120  122 ar  
   127  120  129 1   
   128  121  123 ar  
   129  121  130 1   
   130  122  124 ar  
   131  122  131 1   
   132  123  124 ar  
   133  123  132 1   
   134  124  133 1   
   135  134  135 1   
   136  134  140 1   
   137  135  136 1   
   138  135  138 1   
   139  135  141 1   
   140  136  137 2   
   141  136  148 1   
   142  138  139 1   
   143  138  142 1   
   144  138  143 1   
   145  139  140 1   
   146  139  144 1   
   147  139  145 1   
   148  140  146 1   
   149  140  147 1   
   150  148  149 1   
   151  148  157 1   
   152  149  150 1   
   153  149  152 1   
   154  149  158 1   
   155  150  151 2   
   156  150  163 1   
   157  152  153 1   
   158  152  159 1   
   159  152  160 1   
   160  153  154 1   
   161  153  161 1   
   162  153  162 1   
   163  154  155 1   
   164  154  156 1   
   165  163  164 1   
   166  163  168 1   
   167  164  165 1   
   168  164  166 1   
   169  164  167 1   
   170  170  171 1   
   171  170  172 1   
   172  173  174 1   
   173  173  175 1   
   174  176  177 1   
   175  176  178 1   
@<TRIPOS>SUBSTRUCTURE
     1 MOL         1 TEMP              0 ****  ****    0 ROOT
