@<TRIPOS>MOLECULE
MOL
  186   183     1     0     0
SMALL
resp


@<TRIPOS>ATOM
      1 C1          1.0260   -1.5880    6.8040 c3        1 MOL     -0.319147
      2 C2          1.1730   -1.8820    5.2500 c         1 MOL      0.782230
      3 O1          0.3540   -2.6150    4.7860 o         1 MOL     -0.573172
      4 H1          0.4260   -0.6890    6.9480 hc        1 MOL      0.062672
      5 H2          0.5370   -2.4320    7.2900 hc        1 MOL      0.062672
      6 H3          2.0130   -1.4380    7.2420 hc        1 MOL      0.062672
      7 N1          2.2260   -1.3770    4.5930 n         1 MOL     -0.710152
      8 C3          2.5300   -1.5700    3.1740 c3        1 MOL      0.084692
      9 C4          2.7890   -3.0030    2.7630 c         1 MOL      0.732047
     10 O2          3.5340   -3.6780    3.4860 o         1 MOL     -0.593878
     11 C5          3.7770   -0.7010    2.9160 c3        1 MOL      0.016354
     12 C6          4.2580   -0.7870    1.4830 c         1 MOL      0.542739
     13 O3          5.5090   -0.7210    1.2700 o         1 MOL     -0.657037
     14 O4          3.4230   -0.9840    0.5660 o         1 MOL     -0.657037
     15 H4          2.8820   -0.9070    5.1910 hn        1 MOL      0.337217
     16 H5          1.6910   -1.0960    2.6520 h1        1 MOL      0.051314
     17 H6          4.5290   -0.9230    3.6660 hc        1 MOL      0.002020
     18 H7          3.5140    0.3320    3.1410 hc        1 MOL      0.002020
     19 N2          2.2020   -3.4180    1.6240 n         1 MOL     -0.561283
     20 C7          2.1460   -4.8310    1.1660 c3        1 MOL     -0.043212
     21 C8          3.1940   -5.0940    0.0320 c         1 MOL      0.549596
     22 O5          3.7360   -6.1870    0.0030 o         1 MOL     -0.585900
     23 C9          0.7370   -5.3800    0.8230 c3        1 MOL      0.150186
     24 C10        -0.1440   -5.3260    2.1180 c3        1 MOL      0.009174
     25 C11         0.6890   -6.7500    0.1480 c3        1 MOL     -0.096766
     26 C12        -1.6070   -5.6100    1.8600 c3        1 MOL     -0.341075
     27 H8          1.7240   -2.7090    1.0770 hn        1 MOL      0.253123
     28 H9          2.4860   -5.3830    2.0390 h1        1 MOL      0.070732
     29 H10         0.2790   -4.6930    0.1150 hc        1 MOL      0.033145
     30 H11        -0.1590   -4.2930    2.4680 hc        1 MOL      0.029404
     31 H12         0.2710   -5.9010    2.9460 hc        1 MOL      0.029404
     32 H13         1.1850   -6.6430   -0.8190 hc        1 MOL      0.008275
     33 H14         1.2350   -7.4860    0.7410 hc        1 MOL      0.008275
     34 H15        -0.3100   -7.1750   -0.0170 hc        1 MOL      0.008275
     35 H16        -1.8640   -5.0310    0.9790 hc        1 MOL      0.086300
     36 H17        -1.7390   -6.6410    1.5200 hc        1 MOL      0.086300
     37 H18        -2.2550   -5.3480    2.7020 hc        1 MOL      0.086300
     38 N3          3.5060   -4.0780   -0.7710 n         1 MOL     -0.335736
     39 C13         4.5080   -4.2800   -1.8760 c3        1 MOL      0.019591
     40 C14         5.8650   -3.5740   -1.7410 c         1 MOL      0.395567
     41 O6          6.7580   -3.6030   -2.6080 o         1 MOL     -0.521603
     42 C15         3.8930   -3.9910   -3.2460 c3        1 MOL     -0.232273
     43 C16         2.9100   -2.8090   -3.2290 c         1 MOL      0.798967
     44 O7          3.1970   -1.7840   -2.6180 o         1 MOL     -0.714232
     45 O8          1.9210   -2.8350   -3.9680 o         1 MOL     -0.714232
     46 H19         3.0190   -3.2010   -0.6580 hn        1 MOL      0.278242
     47 H20         4.7440   -5.3450   -1.8310 h1        1 MOL      0.101167
     48 H21         3.3560   -4.8840   -3.5540 hc        1 MOL      0.052461
     49 H22         4.6760   -3.7960   -3.9800 hc        1 MOL      0.052461
     50 N4          6.0100   -2.9250   -0.5730 n         1 MOL     -0.230636
     51 C17         7.3200   -2.4210   -0.0930 c3        1 MOL     -0.378387
     52 C18         7.8860   -1.1800   -0.7420 c         1 MOL      0.633748
     53 O9          9.0680   -0.9500   -0.8590 o         1 MOL     -0.618393
     54 H23         5.1320   -2.7540   -0.1150 hn        1 MOL      0.257148
     55 H24         8.0830   -3.1920   -0.2110 h1        1 MOL      0.155324
     56 H25         7.1550   -2.2330    0.9670 h1        1 MOL      0.155324
     57 N5          6.9770   -0.3210   -1.2360 n         1 MOL     -0.230868
     58 C19         7.3700    1.1240   -1.7050 c3        1 MOL     -0.055938
     59 C20         7.3970    2.0910   -0.4770 c         1 MOL      0.421976
     60 O10         7.6910    3.2670   -0.6810 o         1 MOL     -0.539364
     61 C21         6.3790    1.6290   -2.8320 c3        1 MOL     -0.107042
     62 C22         4.8740    1.6230   -2.5420 c         1 MOL      0.815483
     63 O11         4.4680    1.6980   -1.3770 o         1 MOL     -0.748854
     64 O12         3.9870    1.5180   -3.4270 o         1 MOL     -0.748854
     65 H26         6.0050   -0.4450   -0.9910 hn        1 MOL      0.083861
     66 H27         8.3640    1.0830   -2.1270 h1        1 MOL      0.124240
     67 H28         6.4760    1.0740   -3.7600 hc        1 MOL      0.033598
     68 H29         6.6710    2.6550   -3.0650 hc        1 MOL      0.033598
     69 N6          7.1590    1.6570    0.7360 n         1 MOL     -0.234009
     70 C23         7.0670    2.5810    1.9000 c3        1 MOL     -0.088664
     71 C24         5.8850    3.5820    1.8170 c         1 MOL      0.561921
     72 O13         6.0220    4.6260    2.4220 o         1 MOL     -0.584301
     73 H30         7.0380    0.6650    0.8690 hn        1 MOL      0.242715
     74 H31         7.9820    3.1710    1.9700 h1        1 MOL      0.066424
     75 H32         6.9730    2.0250    2.8350 h1        1 MOL      0.066424
     76 N7          4.8090    3.2810    1.0320 n         1 MOL     -0.507191
     77 C25         3.5580    4.0660    1.0010 c3        1 MOL      0.367768
     78 C26         2.2980    3.1000    1.0680 c         1 MOL      0.487726
     79 O14         2.4380    1.9050    0.6990 o         1 MOL     -0.608757
     80 C27         3.4280    4.9290   -0.2350 c3        1 MOL     -0.364991
     81 C28         4.4100    6.1840   -0.1840 c3        1 MOL     -0.115669
     82 C29         4.0900    7.2370   -1.2350 c         1 MOL      0.693343
     83 N8          4.5170    8.4690   -1.0530 n         1 MOL     -0.861567
     84 O15         3.5230    6.9360   -2.3060 o         1 MOL     -0.591257
     85 H33         4.9140    2.5050    0.3930 hn        1 MOL      0.390170
     86 H34         3.4940    4.6480    1.9170 h1        1 MOL     -0.005140
     87 H35         2.5220    5.5420   -0.2710 hc        1 MOL      0.124388
     88 H36         3.6640    4.4890   -1.1980 hc        1 MOL      0.124388
     89 H37         5.4000    5.8450   -0.4780 hc        1 MOL      0.052706
     90 H38         4.4620    6.7380    0.7570 hc        1 MOL      0.052706
     91 H39         4.9740    8.6380   -0.1720 hn        1 MOL      0.374289
     92 H40         4.4610    9.0940   -1.8480 hn        1 MOL      0.374289
     93 N9          1.0800    3.5060    1.6130 n         1 MOL     -0.650636
     94 C30        -0.0400    2.5900    1.7820 c3        1 MOL      0.343039
     95 C31        -1.3060    3.1280    1.0130 c         1 MOL      0.365050
     96 O16        -1.9350    4.0780    1.4490 o         1 MOL     -0.547805
     97 C32        -0.4370    2.4220    3.2900 c3        1 MOL      0.295400
     98 C33        -1.6830    1.5940    3.5260 c3        1 MOL     -0.354518
     99 C34         0.7460    1.8890    4.0400 c3        1 MOL     -0.354518
    100 H41         0.8640    4.4680    1.8050 hn        1 MOL      0.308128
    101 H42         0.2480    1.6310    1.3430 h1        1 MOL      0.033178
    102 H43        -0.7290    3.4310    3.6000 hc        1 MOL     -0.072145
    103 H44        -1.8670    1.5180    4.6000 hc        1 MOL      0.074055
    104 H45        -2.5380    1.9990    2.9870 hc        1 MOL      0.074055
    105 H46        -1.5500    0.6650    2.9730 hc        1 MOL      0.074055
    106 H47         0.8780    0.8330    3.7800 hc        1 MOL      0.074055
    107 H48         1.6390    2.4840    3.8240 hc        1 MOL      0.074055
    108 H49         0.4490    1.8750    5.0870 hc        1 MOL      0.074055
    109 N10        -1.5860    2.3750   -0.0660 n         1 MOL     -0.211613
    110 C35        -2.8190    2.6190   -0.9060 c3        1 MOL     -0.012013
    111 C36        -4.1140    2.1480   -0.1630 c         1 MOL      0.338548
    112 O17        -4.0620    1.2650    0.7390 o         1 MOL     -0.190964
    113 C37        -2.4820    1.7630   -2.1690 c3        1 MOL     -0.244529
    114 C38        -3.5110    1.8910   -3.3250 c         1 MOL      0.613637
    115 N11        -3.1490    2.3050   -4.4530 n         1 MOL     -0.686667
    116 O18        -4.7040    1.7070   -3.0830 o         1 MOL     -0.578217
    117 H50        -1.0030    1.5890   -0.3220 hn        1 MOL      0.168597
    118 H51        -2.9700    3.6400   -1.2380 h1        1 MOL      0.079486
    119 H52        -2.4640    0.7000   -1.9040 hc        1 MOL      0.111002
    120 H53        -1.4990    2.0490   -2.5490 hc        1 MOL      0.111002
    121 H54        -2.1950    2.5130   -4.6920 hn        1 MOL      0.352283
    122 H55        -3.8900    2.5660   -5.0830 hn        1 MOL      0.352283
    123 N12        -5.3170    2.6730   -0.5140 n         1 MOL     -0.546550
    124 C39        -6.5840    2.2170    0.1410 c3        1 MOL      0.201894
    125 C40        -6.7960    0.6540   -0.0580 c         1 MOL      0.590002
    126 O19        -7.2310   -0.0580    0.8920 o         1 MOL     -0.560270
    127 C41        -7.7670    3.0370   -0.4390 c3        1 MOL     -0.233947
    128 C42        -9.0690    2.5840    0.1770 ca        1 MOL     -0.054873
    129 C43        -9.3170    2.7970    1.5790 ca        1 MOL     -0.063593
    130 C44       -10.0130    1.9910   -0.5910 ca        1 MOL     -0.063593
    131 C45       -10.6210    2.4560    2.0750 ca        1 MOL     -0.344186
    132 C46       -11.2710    1.5940   -0.0590 ca        1 MOL     -0.344186
    133 C47       -11.5340    1.7690    1.3000 ca        1 MOL      0.453156
    134 O20       -12.7130    1.3890    1.8750 oh        1 MOL     -0.554376
    135 H56        -5.3550    3.2750   -1.3300 hn        1 MOL      0.327083
    136 H57        -6.4710    2.3640    1.2160 h1        1 MOL      0.067214
    137 H58        -7.7780    2.9630   -1.5280 hc        1 MOL      0.088447
    138 H59        -7.6200    4.0720   -0.1330 hc        1 MOL      0.088447
    139 H60        -8.6060    3.2510    2.2470 ha        1 MOL      0.125669
    140 H61        -9.8430    1.7300   -1.6320 ha        1 MOL      0.125669
    141 H62       -10.8460    2.5910    3.1300 ha        1 MOL      0.149595
    142 H63       -12.0170    1.2000   -0.7200 ha        1 MOL      0.149595
    143 H64       -13.2250    0.7880    1.3460 ho        1 MOL      0.381173
    144 N13        -6.5110    0.0780   -1.2440 n         1 MOL     -0.409214
    145 C48        -6.5880   -1.3420   -1.5780 c3        1 MOL     -0.006081
    146 C49        -5.7000   -2.1690   -0.5670 c         1 MOL      0.446457
    147 O21        -6.0280   -3.3440   -0.3410 o         1 MOL     -0.540036
    148 C50        -6.0920   -1.5250   -3.0070 c3        1 MOL      0.208445
    149 C51        -6.7490   -2.7710   -3.6840 c3        1 MOL     -0.248013
    150 C52        -6.2930   -3.0710   -5.0680 c         1 MOL      0.745298
    151 O22        -5.8720   -2.1250   -5.7940 o         1 MOL     -0.761667
    152 O23        -6.5830   -4.2260   -5.5130 o         1 MOL     -0.761667
    153 H65        -6.1040    0.7340   -1.8950 hn        1 MOL      0.243874
    154 H66        -7.6340   -1.6480   -1.5040 h1        1 MOL      0.049171
    155 H67        -5.0130   -1.7110   -2.9500 hc        1 MOL     -0.029651
    156 H68        -6.3370   -0.6480   -3.6080 hc        1 MOL     -0.029651
    157 H69        -7.8140   -2.5820   -3.7750 hc        1 MOL      0.029618
    158 H70        -6.5040   -3.6190   -3.0480 hc        1 MOL      0.029618
    159 N14        -4.6530   -1.6000   -0.0020 n         1 MOL     -0.070194
    160 C53        -3.7910   -2.1600    1.0390 c3        1 MOL     -0.072572
    161 C54        -4.2800   -1.9190    2.4850 c         1 MOL      0.407433
    162 O24        -4.1820   -2.8050    3.3430 o         1 MOL     -0.551030
    163 C55        -2.3260   -1.6010    1.0090 c3        1 MOL      0.008909
    164 C56        -1.6300   -1.8590   -0.3290 c3        1 MOL     -0.038669
    165 C57        -0.2270   -1.1560   -0.4270 c         1 MOL      0.739709
    166 O25         0.7380   -1.8960   -0.5280 o         1 MOL     -0.746117
    167 O26        -0.0460    0.0970   -0.4000 o         1 MOL     -0.746117
    168 H71        -4.5180   -0.6080   -0.1320 hn        1 MOL      0.040669
    169 H72        -3.6430   -3.2400    0.9230 h1        1 MOL      0.073274
    170 H73        -1.7150   -2.0230    1.8160 hc        1 MOL      0.049147
    171 H74        -2.2800   -0.5330    1.1930 hc        1 MOL      0.049147
    172 H75        -2.1900   -1.3490   -1.1110 hc        1 MOL     -0.001256
    173 H76        -1.6810   -2.9370   -0.4640 hc        1 MOL     -0.001256
    174 N15        -4.9180   -0.8080    2.6230 n         1 MOL      0.027364
    175 C58        -5.4410   -0.3260    3.8680 c3        1 MOL     -0.299613
    176 H77        -5.8410    0.6790    3.7290 h1        1 MOL      0.100338
    177 H78        -6.2360   -0.9880    4.2100 h1        1 MOL      0.100338
    178 H79        -4.6440   -0.3000    4.6110 h1        1 MOL      0.100338
    179 H80        -4.8070   -0.1410    1.8710 hn        1 MOL     -0.037258
    180 Ca1         2.3900    0.2810   -1.3150 Ca        1 MOL      1.792494
    181 O27         1.0040   -0.2470   -3.4760 oh        1 MOL     -0.883151
    182 H81         0.1260   -0.2750   -3.8740 ho        1 MOL      0.404370
    183 H82         1.4520   -1.0070   -3.8340 ho        1 MOL      0.404370
    184 O28         1.9130    2.6190   -2.4430 oh        1 MOL     -0.883151
    185 H83         1.5270    3.3070   -2.9830 ho        1 MOL      0.404370
    186 H84         2.7460    2.4230   -2.8670 ho        1 MOL      0.404370
@<TRIPOS>BOND
     1    1    2 1   
     2    1    4 1   
     3    1    5 1   
     4    1    6 1   
     5    2    3 2   
     6    2    7 1   
     7    7    8 1   
     8    7   15 1   
     9    8    9 1   
    10    8   11 1   
    11    8   16 1   
    12    9   10 2   
    13    9   19 1   
    14   11   12 1   
    15   11   17 1   
    16   11   18 1   
    17   12   13 1   
    18   12   14 1   
    19   19   20 1   
    20   19   27 1   
    21   20   21 1   
    22   20   23 1   
    23   20   28 1   
    24   21   22 2   
    25   21   38 1   
    26   23   24 1   
    27   23   25 1   
    28   23   29 1   
    29   24   26 1   
    30   24   30 1   
    31   24   31 1   
    32   25   32 1   
    33   25   33 1   
    34   25   34 1   
    35   26   35 1   
    36   26   36 1   
    37   26   37 1   
    38   38   39 1   
    39   38   46 1   
    40   39   40 1   
    41   39   42 1   
    42   39   47 1   
    43   40   41 2   
    44   40   50 1   
    45   42   43 1   
    46   42   48 1   
    47   42   49 1   
    48   43   44 1   
    49   43   45 1   
    50   50   51 1   
    51   50   54 1   
    52   51   52 1   
    53   51   55 1   
    54   51   56 1   
    55   52   53 2   
    56   52   57 1   
    57   57   58 1   
    58   57   65 1   
    59   58   59 1   
    60   58   61 1   
    61   58   66 1   
    62   59   60 2   
    63   59   69 1   
    64   61   62 1   
    65   61   67 1   
    66   61   68 1   
    67   62   63 1   
    68   62   64 1   
    69   69   70 1   
    70   69   73 1   
    71   70   71 1   
    72   70   74 1   
    73   70   75 1   
    74   71   72 2   
    75   71   76 1   
    76   76   77 1   
    77   76   85 1   
    78   77   78 1   
    79   77   80 1   
    80   77   86 1   
    81   78   79 2   
    82   78   93 1   
    83   80   81 1   
    84   80   87 1   
    85   80   88 1   
    86   81   82 1   
    87   81   89 1   
    88   81   90 1   
    89   82   83 1   
    90   82   84 2   
    91   83   91 1   
    92   83   92 1   
    93   93   94 1   
    94   93  100 1   
    95   94   95 1   
    96   94   97 1   
    97   94  101 1   
    98   95   96 2   
    99   95  109 1   
   100   97   98 1   
   101   97   99 1   
   102   97  102 1   
   103   98  103 1   
   104   98  104 1   
   105   98  105 1   
   106   99  106 1   
   107   99  107 1   
   108   99  108 1   
   109  109  110 1   
   110  109  117 1   
   111  110  111 1   
   112  110  113 1   
   113  110  118 1   
   114  111  112 2   
   115  111  123 1   
   116  113  114 1   
   117  113  119 1   
   118  113  120 1   
   119  114  115 1   
   120  114  116 2   
   121  115  121 1   
   122  115  122 1   
   123  123  124 1   
   124  123  135 1   
   125  124  125 1   
   126  124  127 1   
   127  124  136 1   
   128  125  126 2   
   129  125  144 1   
   130  127  128 1   
   131  127  137 1   
   132  127  138 1   
   133  128  129 ar  
   134  128  130 ar  
   135  129  131 ar  
   136  129  139 1   
   137  130  132 ar  
   138  130  140 1   
   139  131  133 ar  
   140  131  141 1   
   141  132  133 ar  
   142  132  142 1   
   143  133  134 1   
   144  134  143 1   
   145  144  145 1   
   146  144  153 1   
   147  145  146 1   
   148  145  148 1   
   149  145  154 1   
   150  146  147 2   
   151  146  159 1   
   152  148  149 1   
   153  148  155 1   
   154  148  156 1   
   155  149  150 1   
   156  149  157 1   
   157  149  158 1   
   158  150  151 1   
   159  150  152 1   
   160  159  160 1   
   161  159  168 1   
   162  160  161 1   
   163  160  163 1   
   164  160  169 1   
   165  161  162 2   
   166  161  174 1   
   167  163  164 1   
   168  163  170 1   
   169  163  171 1   
   170  164  165 1   
   171  164  172 1   
   172  164  173 1   
   173  165  166 1   
   174  165  167 1   
   175  174  175 1   
   176  174  179 1   
   177  175  176 1   
   178  175  177 1   
   179  175  178 1   
   180  181  182 1   
   181  181  183 1   
   182  184  185 1   
   183  184  186 1   
@<TRIPOS>SUBSTRUCTURE
     1 MOL         1 TEMP              0 ****  ****    0 ROOT
