@<TRIPOS>MOLECULE
MOL
  179   176     1     0     0
SMALL
resp


@<TRIPOS>ATOM
      1 C1         -1.3640   -3.0090    7.0460 c3        1 MOL     -0.217508
      2 C2         -1.5640   -2.4960    5.5960 c         1 MOL      0.627692
      3 O1         -2.6370   -2.4770    5.0240 o         1 MOL     -0.533959
      4 H1         -0.6960   -2.3340    7.5810 hc        1 MOL      0.054585
      5 H2         -2.3280   -3.0440    7.5550 hc        1 MOL      0.054585
      6 H3         -0.9280   -4.0080    7.0220 hc        1 MOL      0.054585
      7 N1         -0.4650   -2.3100    4.8990 n         1 MOL     -0.493070
      8 C3         -0.3710   -2.3560    3.4320 c3        1 MOL     -0.003575
      9 C4         -0.8720   -3.6280    2.7720 c         1 MOL      0.692222
     10 O2         -1.0080   -4.6720    3.4260 o         1 MOL     -0.530698
     11 C5          1.0050   -1.9100    2.9680 c3        1 MOL     -0.089609
     12 C6          1.2080   -1.5280    1.5070 c         1 MOL      0.740745
     13 O3          2.3440   -1.5070    1.0040 o         1 MOL     -0.723562
     14 O4          0.2090   -1.1320    0.9190 o         1 MOL     -0.723562
     15 H4          0.4070   -2.5370    5.3570 hn        1 MOL      0.287115
     16 H5         -1.1160   -1.6810    3.0180 h1        1 MOL      0.069972
     17 H6          1.7160   -2.7390    2.9810 hc        1 MOL     -0.003484
     18 H7          1.3080   -1.0650    3.5780 hc        1 MOL     -0.003484
     19 N2         -1.2480   -3.5460    1.4380 n         1 MOL     -0.537679
     20 C7         -1.8010   -4.6620    0.6120 c3        1 MOL     -0.040843
     21 C8         -0.6800   -5.4090   -0.1040 c         1 MOL      0.421400
     22 O5         -0.7480   -6.6610   -0.1610 o         1 MOL     -0.576274
     23 C9         -2.8170   -4.0000   -0.3710 c3        1 MOL      0.260828
     24 C10        -3.7830   -5.0080   -0.9950 c3        1 MOL     -0.305888
     25 C11        -4.6190   -4.4350   -2.1160 c3        1 MOL      0.232553
     26 C12        -5.4410   -5.6070   -2.7280 c3        1 MOL     -0.004072
     27 N3         -6.1100   -5.0610   -3.8980 n4        1 MOL     -0.276647
     28 H8         -1.0520   -2.6880    0.9600 hn        1 MOL      0.292550
     29 H9         -2.4140   -5.3350    1.2050 h1        1 MOL      0.112050
     30 H10        -2.2920   -3.4320   -1.1380 hc        1 MOL     -0.018832
     31 H11        -3.4270   -3.2740    0.1610 hc        1 MOL     -0.018832
     32 H12        -4.4520   -5.4230   -0.2390 hc        1 MOL      0.070974
     33 H13        -3.1430   -5.8280   -1.3290 hc        1 MOL      0.070974
     34 H14        -3.9310   -3.9900   -2.8360 hc        1 MOL     -0.035604
     35 H15        -5.2880   -3.6070   -1.8620 hc        1 MOL     -0.035604
     36 H16        -6.1650   -5.8590   -1.9550 hx        1 MOL      0.088855
     37 H17        -4.8580   -6.4660   -3.0650 hx        1 MOL      0.088855
     38 H18        -6.5670   -4.1800   -3.7070 hn        1 MOL      0.302392
     39 H19        -5.4280   -4.8950   -4.6220 hn        1 MOL      0.302392
     40 H20        -6.8320   -5.6650   -4.2610 hn        1 MOL      0.302392
     41 N4          0.3500   -4.8050   -0.6170 n         1 MOL     -0.160837
     42 C13         1.4080   -5.4020   -1.3870 c3        1 MOL      0.083415
     43 C14         2.7220   -5.3700   -0.6260 c         1 MOL      0.380225
     44 O6          3.7510   -5.9260   -1.1230 o         1 MOL     -0.533888
     45 C15         1.4840   -4.7540   -2.7830 c3        1 MOL     -0.340083
     46 C16         1.7310   -3.3130   -2.8680 c         1 MOL      0.856933
     47 O7          2.0010   -2.8710   -4.0200 o         1 MOL     -0.704014
     48 O8          1.6460   -2.5710   -1.8100 o         1 MOL     -0.704014
     49 H21         0.3280   -3.7990   -0.4950 hn        1 MOL      0.096310
     50 H22         1.1960   -6.4460   -1.6130 h1        1 MOL      0.104955
     51 H23         0.4790   -4.9030   -3.2020 hc        1 MOL      0.087761
     52 H24         2.2820   -5.2650   -3.3080 hc        1 MOL      0.087761
     53 N5          2.8160   -4.6820    0.4770 n         1 MOL     -0.150089
     54 C17         3.9780   -4.5630    1.3000 c3        1 MOL     -0.211009
     55 C18         5.1820   -3.8000    0.6110 c         1 MOL      0.513420
     56 O9          6.3390   -4.0080    0.9850 o         1 MOL     -0.563541
     57 H25         2.1350   -3.9930    0.7560 hn        1 MOL      0.131767
     58 H26         4.2980   -5.5620    1.5930 h1        1 MOL      0.117373
     59 H27         3.6630   -3.9920    2.1750 h1        1 MOL      0.117373
     60 N6          4.9000   -3.0000   -0.4440 n         1 MOL     -0.123920
     61 C19         5.8540   -2.3770   -1.3270 c3        1 MOL     -0.170643
     62 C20         6.4650   -1.1090   -0.7070 c         1 MOL      0.461090
     63 O10         7.4270   -0.5830   -1.2010 o         1 MOL     -0.500194
     64 C21         5.1930   -2.0970   -2.6700 c3        1 MOL     -0.088601
     65 C22         4.5440   -0.7590   -2.6760 c         1 MOL      0.648135
     66 N7          4.8110    0.1090   -3.6610 n         1 MOL     -0.801642
     67 O11         3.7650   -0.3770   -1.8260 o         1 MOL     -0.684426
     68 H28         3.9230   -2.7450   -0.4860 hn        1 MOL      0.191829
     69 H29         6.6260   -3.1420   -1.4320 h1        1 MOL      0.160008
     70 H30         4.4750   -2.8590   -2.9560 hc        1 MOL      0.060966
     71 H31         5.9680   -1.9850   -3.4200 hc        1 MOL      0.060966
     72 H32         5.7090   -0.0410   -4.0910 hn        1 MOL      0.380681
     73 H33         4.3220    0.9930   -3.6780 hn        1 MOL      0.380681
     74 N8          6.0350   -0.7220    0.5420 n         1 MOL     -0.178739
     75 C23         6.6820    0.3540    1.4340 c3        1 MOL     -0.285407
     76 C24         6.0060    1.7060    1.5040 c         1 MOL      0.612211
     77 O12         6.5480    2.6160    2.1600 o         1 MOL     -0.572764
     78 H34         5.3640   -1.3180    1.0130 hn        1 MOL      0.209887
     79 H35         7.7140    0.4740    1.0960 h1        1 MOL      0.131906
     80 H36         6.7940   -0.0130    2.4450 h1        1 MOL      0.131906
     81 N9          4.8260    1.7480    0.9430 n         1 MOL     -0.355329
     82 C25         3.9300    2.9270    1.0430 c3        1 MOL      0.168401
     83 C26         2.4780    2.4450    1.0330 c         1 MOL      0.357600
     84 O13         2.2270    1.3920    0.5140 o         1 MOL     -0.489988
     85 C27         4.1610    3.8030   -0.2780 c3        1 MOL     -0.027177
     86 C28         5.4620    4.5740   -0.4200 ca        1 MOL     -0.026894
     87 C29         6.4860    4.0950   -1.2540 ca        1 MOL     -0.182614
     88 C30         5.6520    5.7680    0.3590 ca        1 MOL     -0.182614
     89 C31         7.7420    4.6920   -1.2510 ca        1 MOL     -0.176700
     90 C32         6.8630    6.4630    0.2550 ca        1 MOL     -0.176700
     91 C33         7.9360    5.9050   -0.5150 ca        1 MOL      0.276154
     92 O14         9.0720    6.6140   -0.8170 oh        1 MOL     -0.469826
     93 H37         4.4730    0.9100    0.5050 hn        1 MOL      0.230353
     94 H38         4.1140    3.4760    1.9670 h1        1 MOL      0.032607
     95 H39         3.3570    4.5350   -0.3020 hc        1 MOL      0.039552
     96 H40         4.0470    3.1340   -1.1420 hc        1 MOL      0.039552
     97 H41         6.4260    3.1760   -1.8200 ha        1 MOL      0.142281
     98 H42         4.8980    6.1820    1.0050 ha        1 MOL      0.142281
     99 H43         8.5130    4.2390   -1.8580 ha        1 MOL      0.129437
    100 H44         6.9210    7.4580    0.6900 ha        1 MOL      0.129437
    101 H45         9.1950    7.2860   -0.1440 ho        1 MOL      0.350021
    102 N10         1.5380    3.2640    1.3990 n         1 MOL     -0.357316
    103 C34         0.0660    3.0860    1.4550 c3        1 MOL      0.017227
    104 C35        -0.7660    4.0810    0.6660 c         1 MOL      0.406119
    105 O15        -0.7680    5.3020    0.9520 o         1 MOL     -0.563154
    106 C36        -0.4090    2.9320    2.9340 c3        1 MOL      0.004230
    107 C37         0.2510    1.6160    3.5720 c3        1 MOL     -0.074589
    108 C38        -1.8800    2.7190    3.1470 c3        1 MOL     -0.124997
    109 C39         0.0820    1.4570    5.1190 c3        1 MOL     -0.087280
    110 H46         1.8760    4.1120    1.8350 hn        1 MOL      0.267126
    111 H47        -0.1870    2.1350    0.9880 h1        1 MOL     -0.005292
    112 H48        -0.1780    3.7890    3.5520 hc        1 MOL      0.046400
    113 H49         1.3250    1.6000    3.3700 hc        1 MOL      0.074953
    114 H50        -0.2380    0.7430    3.1460 hc        1 MOL      0.074953
    115 H51        -2.2500    2.1180    2.3150 hc        1 MOL      0.026759
    116 H52        -2.1910    2.4640    4.1600 hc        1 MOL      0.026759
    117 H53        -2.4570    3.6280    2.9290 hc        1 MOL      0.026759
    118 H54         0.6520    0.5820    5.4340 hc        1 MOL      0.023075
    119 H55         0.5340    2.3320    5.5630 hc        1 MOL      0.023075
    120 H56        -0.9490    1.3160    5.4440 hc        1 MOL      0.023075
    121 N11        -1.6940    3.5270   -0.1140 n         1 MOL      0.005562
    122 C40        -2.7380    4.2970   -0.9050 c3        1 MOL     -0.031191
    123 C41        -4.1240    4.0740   -0.3440 c         1 MOL      0.253107
    124 O16        -4.3360    3.0650    0.3730 o         1 MOL     -0.272584
    125 C42        -2.6030    3.7880   -2.4010 c3        1 MOL      0.164768
    126 O17        -1.3120    3.8630   -2.9570 oh        1 MOL     -0.630384
    127 H57        -1.5600    2.5360   -0.2920 hn        1 MOL      0.272764
    128 H58        -2.5160    5.3630   -0.8710 h1        1 MOL      0.083056
    129 H59        -3.3500    4.0920   -3.1350 h1        1 MOL      0.010799
    130 H60        -2.7570    2.7010   -2.4000 h1        1 MOL      0.010799
    131 H61        -1.4070    3.5530   -3.8690 ho        1 MOL      0.421041
    132 N12        -5.0570    4.9460   -0.7320 n         1 MOL     -0.329431
    133 C43        -6.5170    4.9730   -0.2430 c3        1 MOL      0.144959
    134 C44        -7.2660    3.6600   -0.5740 c         1 MOL      0.384573
    135 O18        -7.9970    3.0870    0.1830 o         1 MOL     -0.470373
    136 C45        -7.3670    6.1920   -0.6800 c3        1 MOL     -0.399258
    137 H62        -4.8010    5.6560   -1.3910 hn        1 MOL      0.264567
    138 H63        -6.4150    5.0300    0.8350 h1        1 MOL      0.081694
    139 H64        -6.7990    7.0960   -0.4270 hc        1 MOL      0.128142
    140 H65        -7.4980    6.1460   -1.7620 hc        1 MOL      0.128142
    141 H66        -8.3640    6.1550   -0.2290 hc        1 MOL      0.128142
    142 N13        -7.0210    3.1800   -1.7710 n         1 MOL     -0.280822
    143 C46        -7.4880    1.8830   -2.2500 c3        1 MOL      0.168445
    144 C47        -7.0420    0.7860   -1.2760 c         1 MOL      0.312902
    145 O19        -7.8050   -0.1880   -1.0880 o         1 MOL     -0.535671
    146 C48        -7.0210    1.6500   -3.6500 c3        1 MOL     -0.380088
    147 H67        -6.5550    3.8050   -2.4100 hn        1 MOL      0.207078
    148 H68        -8.5800    1.8220   -2.2810 h1        1 MOL      0.076624
    149 H69        -5.9310    1.7060   -3.7610 hc        1 MOL      0.104913
    150 H70        -7.2290    0.6150   -3.9190 hc        1 MOL      0.104913
    151 H71        -7.4990    2.4320   -4.2390 hc        1 MOL      0.104913
    152 N14        -5.8660    0.8370   -0.6470 n         1 MOL      0.042204
    153 C49        -5.2030   -0.2010    0.2070 c3        1 MOL     -0.065133
    154 C50        -5.5400   -0.0600    1.6440 c         1 MOL      0.440434
    155 O20        -5.7570   -1.1000    2.3260 o         1 MOL     -0.535393
    156 C51        -3.6510   -0.1610   -0.0060 c3        1 MOL      0.261070
    157 C52        -3.3170   -0.3140   -1.4920 c3        1 MOL     -0.115979
    158 C53        -1.8780   -0.1080   -1.6650 c         1 MOL      0.658835
    159 O21        -1.1240   -0.8940   -2.3320 o         1 MOL     -0.697922
    160 O22        -1.2600    0.8550   -1.1400 o         1 MOL     -0.697922
    161 H72        -5.3400    1.6670   -0.8420 hn        1 MOL     -0.021425
    162 H73        -5.6070   -1.1710   -0.0660 h1        1 MOL      0.061335
    163 H74        -3.0990   -0.8110    0.6750 hc        1 MOL     -0.063986
    164 H75        -3.3520    0.8530    0.2780 hc        1 MOL     -0.063986
    165 H76        -3.8590    0.3060   -2.2070 hc        1 MOL     -0.017505
    166 H77        -3.5630   -1.3570   -1.7280 hc        1 MOL     -0.017505
    167 N15        -5.6420    1.1820    2.1200 n         1 MOL     -0.162844
    168 C54        -6.2870    1.4380    3.4480 c3        1 MOL     -0.261659
    169 H78        -5.5860    1.9640    4.0970 h1        1 MOL      0.118142
    170 H79        -7.1790    2.0470    3.3080 h1        1 MOL      0.118142
    171 H80        -6.5620    0.4890    3.9080 h1        1 MOL      0.118142
    172 H81        -5.3860    1.9220    1.4740 hn        1 MOL      0.110817
    173 Ca1         1.2100   -0.1190   -1.3300 Ca        1 MOL      1.761507
    174 O23         0.8640    2.4290   -1.9760 oh        1 MOL     -0.914170
    175 H82         1.2680    3.2160   -2.3420 ho        1 MOL      0.415119
    176 H83        -0.0400    2.4520   -2.2860 ho        1 MOL      0.415119
    177 O24         1.1670   -0.4270   -4.0410 oh        1 MOL     -0.914170
    178 H84         1.5980   -1.2740   -4.1720 ho        1 MOL      0.415119
    179 H85         1.0580   -0.0660   -4.9240 ho        1 MOL      0.415119
@<TRIPOS>BOND
     1    1    2 1   
     2    1    4 1   
     3    1    5 1   
     4    1    6 1   
     5    2    3 2   
     6    2    7 1   
     7    7    8 1   
     8    7   15 1   
     9    8    9 1   
    10    8   11 1   
    11    8   16 1   
    12    9   10 2   
    13    9   19 1   
    14   11   12 1   
    15   11   17 1   
    16   11   18 1   
    17   12   13 1   
    18   12   14 1   
    19   19   20 1   
    20   19   28 1   
    21   20   21 1   
    22   20   23 1   
    23   20   29 1   
    24   21   22 2   
    25   21   41 1   
    26   23   24 1   
    27   23   30 1   
    28   23   31 1   
    29   24   25 1   
    30   24   32 1   
    31   24   33 1   
    32   25   26 1   
    33   25   34 1   
    34   25   35 1   
    35   26   27 1   
    36   26   36 1   
    37   26   37 1   
    38   27   38 1   
    39   27   39 1   
    40   27   40 1   
    41   41   42 1   
    42   41   49 1   
    43   42   43 1   
    44   42   45 1   
    45   42   50 1   
    46   43   44 2   
    47   43   53 1   
    48   45   46 1   
    49   45   51 1   
    50   45   52 1   
    51   46   47 1   
    52   46   48 1   
    53   53   54 1   
    54   53   57 1   
    55   54   55 1   
    56   54   58 1   
    57   54   59 1   
    58   55   56 2   
    59   55   60 1   
    60   60   61 1   
    61   60   68 1   
    62   61   62 1   
    63   61   64 1   
    64   61   69 1   
    65   62   63 2   
    66   62   74 1   
    67   64   65 1   
    68   64   70 1   
    69   64   71 1   
    70   65   66 1   
    71   65   67 2   
    72   66   72 1   
    73   66   73 1   
    74   74   75 1   
    75   74   78 1   
    76   75   76 1   
    77   75   79 1   
    78   75   80 1   
    79   76   77 2   
    80   76   81 1   
    81   81   82 1   
    82   81   93 1   
    83   82   83 1   
    84   82   85 1   
    85   82   94 1   
    86   83   84 2   
    87   83  102 1   
    88   85   86 1   
    89   85   95 1   
    90   85   96 1   
    91   86   87 ar  
    92   86   88 ar  
    93   87   89 ar  
    94   87   97 1   
    95   88   90 ar  
    96   88   98 1   
    97   89   91 ar  
    98   89   99 1   
    99   90   91 ar  
   100   90  100 1   
   101   91   92 1   
   102   92  101 1   
   103  102  103 1   
   104  102  110 1   
   105  103  104 1   
   106  103  106 1   
   107  103  111 1   
   108  104  105 2   
   109  104  121 1   
   110  106  107 1   
   111  106  108 1   
   112  106  112 1   
   113  107  109 1   
   114  107  113 1   
   115  107  114 1   
   116  108  115 1   
   117  108  116 1   
   118  108  117 1   
   119  109  118 1   
   120  109  119 1   
   121  109  120 1   
   122  121  122 1   
   123  121  127 1   
   124  122  123 1   
   125  122  125 1   
   126  122  128 1   
   127  123  124 2   
   128  123  132 1   
   129  125  126 1   
   130  125  129 1   
   131  125  130 1   
   132  126  131 1   
   133  132  133 1   
   134  132  137 1   
   135  133  134 1   
   136  133  136 1   
   137  133  138 1   
   138  134  135 2   
   139  134  142 1   
   140  136  139 1   
   141  136  140 1   
   142  136  141 1   
   143  142  143 1   
   144  142  147 1   
   145  143  144 1   
   146  143  146 1   
   147  143  148 1   
   148  144  145 2   
   149  144  152 1   
   150  146  149 1   
   151  146  150 1   
   152  146  151 1   
   153  152  153 1   
   154  152  161 1   
   155  153  154 1   
   156  153  156 1   
   157  153  162 1   
   158  154  155 2   
   159  154  167 1   
   160  156  157 1   
   161  156  163 1   
   162  156  164 1   
   163  157  158 1   
   164  157  165 1   
   165  157  166 1   
   166  158  159 1   
   167  158  160 1   
   168  167  168 1   
   169  167  172 1   
   170  168  169 1   
   171  168  170 1   
   172  168  171 1   
   173  174  175 1   
   174  174  176 1   
   175  177  178 1   
   176  177  179 1   
@<TRIPOS>SUBSTRUCTURE
     1 MOL         1 TEMP              0 ****  ****    0 ROOT
