@<TRIPOS>MOLECULE
MOL
  175   173     1     0     0
SMALL
resp


@<TRIPOS>ATOM
      1 C1          0.0310    4.3310    5.6430 c3        1 MOL     -0.286309
      2 C2         -0.4280    4.1230    4.1720 c         1 MOL      0.752483
      3 O1          0.3570    4.0690    3.2910 o         1 MOL     -0.556474
      4 H1         -0.4440    5.2250    6.0470 hc        1 MOL      0.060617
      5 H2         -0.2570    3.4660    6.2400 hc        1 MOL      0.060617
      6 H3          1.1140    4.4500    5.6720 hc        1 MOL      0.060617
      7 N1         -1.7260    3.9670    3.9780 n         1 MOL     -0.694157
      8 C3         -2.3390    3.5930    2.7330 c3        1 MOL      0.153602
      9 C4         -2.3280    4.7210    1.7230 c         1 MOL      0.677250
     10 O2         -2.5880    5.8800    2.1400 o         1 MOL     -0.594051
     11 C5         -3.7590    3.0190    2.9570 c3        1 MOL     -0.416534
     12 C6         -4.4320    2.5870    1.5760 c         1 MOL      0.762651
     13 O3         -5.6060    2.9290    1.3220 o         1 MOL     -0.665962
     14 O4         -3.7350    1.9560    0.7610 o         1 MOL     -0.665962
     15 H4         -2.3940    4.2410    4.6740 hn        1 MOL      0.341559
     16 H5         -1.7490    2.7550    2.3600 h1        1 MOL      0.082568
     17 H6         -4.3400    3.8600    3.3400 hc        1 MOL      0.080406
     18 H7         -3.7420    2.2390    3.7180 hc        1 MOL      0.080406
     19 N2         -2.1310    4.4590    0.3970 n         1 MOL     -0.708260
     20 C7         -2.3670    5.4140   -0.7080 c3        1 MOL      0.387865
     21 C8         -3.1410    4.8430   -1.9470 c         1 MOL      0.522299
     22 O5         -3.2280    5.6050   -2.8910 o         1 MOL     -0.564314
     23 C9         -1.0790    6.1690   -1.0660 c3        1 MOL     -0.170541
     24 H8         -1.8130    3.5250    0.1860 hn        1 MOL      0.395894
     25 H9         -2.9740    6.2460   -0.3390 h1        1 MOL     -0.008729
     26 H10        -0.3160    5.4590   -1.4110 hc        1 MOL      0.027588
     27 H11        -1.3400    6.9510   -1.7800 hc        1 MOL      0.027588
     28 H12        -0.6820    6.6430   -0.1700 hc        1 MOL      0.027588
     29 N3         -3.8520    3.6930   -1.8080 n         1 MOL     -0.365388
     30 C10        -4.7680    3.2480   -2.8790 c3        1 MOL      0.024065
     31 C11        -6.0390    2.4360   -2.5040 c         1 MOL      0.429039
     32 O6         -7.0930    2.6770   -3.1140 o         1 MOL     -0.587305
     33 C12        -3.9430    2.4120   -3.8900 c3        1 MOL     -0.187021
     34 C13        -2.9540    1.3840   -3.3040 c         1 MOL      0.630215
     35 O7         -3.3950    0.6670   -2.3560 o         1 MOL     -0.636092
     36 O8         -1.7560    1.4690   -3.7100 o         1 MOL     -0.636092
     37 H13        -3.6940    3.1740   -0.9630 hn        1 MOL      0.138772
     38 H14        -5.2270    4.1010   -3.3730 h1        1 MOL      0.083124
     39 H15        -3.3250    3.1900   -4.3340 hc        1 MOL      0.038147
     40 H16        -4.5240    1.8890   -4.6470 hc        1 MOL      0.038147
     41 N4         -6.0550    1.7520   -1.3790 n         1 MOL      0.074306
     42 C14        -7.2550    0.9880   -0.9240 c3        1 MOL     -0.385208
     43 C15        -7.2880   -0.4790   -1.4790 c         1 MOL      0.550647
     44 O9         -8.3530   -1.1040   -1.5060 o         1 MOL     -0.598655
     45 H17        -5.2640    1.7910   -0.7390 hn        1 MOL      0.062120
     46 H18        -8.1600    1.4960   -1.2450 h1        1 MOL      0.151548
     47 H19        -7.2000    0.9780    0.1700 h1        1 MOL      0.151548
     48 N5         -6.1640   -1.0820   -1.8650 n         1 MOL     -0.177052
     49 C16        -6.0810   -2.4760   -2.2230 c3        1 MOL      0.027191
     50 C17        -6.0880   -3.4380   -1.0140 c         1 MOL      0.371057
     51 O10        -6.1970   -4.6830   -1.1350 o         1 MOL     -0.523430
     52 C18        -4.8170   -2.7220   -3.0870 c3        1 MOL     -0.233686
     53 C19        -3.4470   -2.5260   -2.4270 c         1 MOL      0.710460
     54 N6         -2.4030   -2.8630   -3.1200 n         1 MOL     -0.630092
     55 O11        -3.2640   -2.2660   -1.2410 o         1 MOL     -0.746824
     56 H20        -5.3820   -0.4970   -2.1050 hn        1 MOL      0.103445
     57 H21        -6.9380   -2.6880   -2.8700 h1        1 MOL      0.090765
     58 H22        -4.7290   -2.1180   -3.9900 hc        1 MOL      0.070934
     59 H23        -4.8280   -3.7900   -3.3000 hc        1 MOL      0.070934
     60 H24        -2.4520   -3.0110   -4.1150 hn        1 MOL      0.313452
     61 H25        -1.4820   -2.5850   -2.8070 hn        1 MOL      0.313452
     62 N7         -6.1120   -2.9230    0.1670 n         1 MOL     -0.142146
     63 C20        -6.0860   -3.6570    1.4410 c3        1 MOL     -0.264688
     64 C21        -4.8070   -4.3550    1.8440 c         1 MOL      0.567205
     65 O12        -4.8120   -5.1750    2.7110 o         1 MOL     -0.600703
     66 H26        -6.3040   -1.9320    0.2320 hn        1 MOL      0.219415
     67 H27        -6.9040   -4.3780    1.4530 h1        1 MOL      0.102741
     68 H28        -6.1670   -2.8910    2.2100 h1        1 MOL      0.102741
     69 N8         -3.7060   -3.9820    1.3060 n         1 MOL     -0.336828
     70 C22        -2.3720   -4.5380    1.6280 c3        1 MOL      0.019115
     71 C23        -1.3580   -3.4170    1.7530 c         1 MOL      0.162828
     72 O13        -1.5010   -2.3840    1.1260 o         1 MOL     -0.369680
     73 C24        -1.9230   -5.5720    0.5480 c3        1 MOL      0.539682
     74 C25        -2.6080   -6.9430    0.4140 c3        1 MOL     -0.490919
     75 O14        -1.9360   -5.0170   -0.7350 oh        1 MOL     -0.588891
     76 H29        -3.7370   -3.2020    0.6640 hn        1 MOL      0.394388
     77 H30        -2.4270   -5.1230    2.5440 h1        1 MOL      0.037016
     78 H31        -0.9040   -5.7750    0.8910 h1        1 MOL     -0.104071
     79 H32        -1.1750   -4.4300   -0.7240 ho        1 MOL      0.375642
     80 H33        -2.0740   -7.5100   -0.3450 hc        1 MOL      0.125713
     81 H34        -2.5830   -7.4620    1.3690 hc        1 MOL      0.125713
     82 H35        -3.6470   -6.8570    0.0780 hc        1 MOL      0.125713
     83 N9         -0.3100   -3.7380    2.4640 n         1 MOL     -0.284744
     84 C26         0.8930   -2.9050    2.3480 c3        1 MOL      0.407043
     85 C27         1.4120   -3.0350    0.9130 c         1 MOL      0.264506
     86 O15         1.4670   -4.1820    0.4660 o         1 MOL     -0.563865
     87 C28         1.9480   -3.2270    3.4680 c3        1 MOL     -0.010873
     88 C29         1.4350   -3.0490    4.9050 c3        1 MOL     -0.062958
     89 C30         3.2850   -2.5430    3.3130 c3        1 MOL      0.098558
     90 C31         0.7190   -1.7670    5.1560 c3        1 MOL     -0.160174
     91 H36        -0.2150   -4.6980    2.7690 hn        1 MOL      0.253951
     92 H37         0.6150   -1.8490    2.4080 h1        1 MOL     -0.046147
     93 H38         2.1410   -4.2920    3.3800 hc        1 MOL     -0.047953
     94 H39         2.3110   -3.0470    5.5630 hc        1 MOL      0.018434
     95 H40         0.7740   -3.8890    5.0650 hc        1 MOL      0.018434
     96 H41         3.7960   -2.9400    2.4290 hc        1 MOL     -0.026040
     97 H42         3.3080   -1.4520    3.2960 hc        1 MOL     -0.026040
     98 H43         3.9380   -2.8610    4.1190 hc        1 MOL     -0.026040
     99 H44        -0.1810   -1.9520    4.5710 hc        1 MOL      0.031061
    100 H45         0.5340   -1.7040    6.2360 hc        1 MOL      0.031061
    101 H46         1.3860   -1.0440    4.6990 hc        1 MOL      0.031061
    102 N10         1.7510   -1.9110    0.3240 n         1 MOL      0.002615
    103 C32         2.6600   -1.8900   -0.8890 c3        1 MOL      0.001091
    104 C33         4.0930   -1.3850   -0.5400 c         1 MOL      0.402899
    105 O16         4.2770   -0.9150    0.5800 o         1 MOL     -0.335976
    106 C34         1.9500   -0.9520   -1.8810 c3        1 MOL     -0.254477
    107 C35         0.5240   -1.4220   -2.2930 c         1 MOL      0.752521
    108 O17         0.3640   -2.1270   -3.3230 o         1 MOL     -0.687703
    109 O18        -0.4950   -1.0020   -1.6810 o         1 MOL     -0.687703
    110 H47         1.4470   -1.0240    0.6870 hn        1 MOL      0.086309
    111 H48         2.6660   -2.8360   -1.4250 h1        1 MOL      0.062249
    112 H49         2.5460   -0.8020   -2.7910 hc        1 MOL      0.073839
    113 H50         1.7990    0.0120   -1.4020 hc        1 MOL      0.073839
    114 N11         5.0810   -1.5560   -1.4220 n         1 MOL     -0.538251
    115 C36         6.5080   -1.2190   -1.3190 c3        1 MOL      0.305905
    116 C37         6.7800    0.2960   -1.1640 c         1 MOL      0.271556
    117 O19         7.5780    0.6540   -0.2550 o         1 MOL     -0.491411
    118 C38         7.3180   -1.9300   -2.3820 c3        1 MOL     -0.123920
    119 C39         8.7840   -1.9900   -2.1860 ca        1 MOL      0.016987
    120 C40         9.6010   -1.0580   -2.9220 ca        1 MOL     -0.139251
    121 C41         9.3290   -2.7670   -1.1790 ca        1 MOL     -0.139251
    122 C42        10.9550   -1.2210   -2.7560 ca        1 MOL     -0.081379
    123 C43        10.7470   -2.8610   -0.9880 ca        1 MOL     -0.081379
    124 C44        11.5510   -2.1200   -1.8250 ca        1 MOL     -0.138009
    125 H51         4.7700   -1.8210   -2.3470 hn        1 MOL      0.295686
    126 H52         6.8150   -1.6590   -0.3760 h1        1 MOL      0.062452
    127 H53         7.0780   -1.5250   -3.3680 hc        1 MOL      0.045610
    128 H54         6.9340   -2.9520   -2.3650 hc        1 MOL      0.045610
    129 H55         9.2220   -0.3670   -3.6640 ha        1 MOL      0.120593
    130 H56         8.6750   -3.4040   -0.5880 ha        1 MOL      0.120593
    131 H57        11.6200   -0.7400   -3.4650 ha        1 MOL      0.096571
    132 H58        11.1240   -3.4490   -0.1620 ha        1 MOL      0.096571
    133 H59        12.6270   -2.2120   -1.7710 ha        1 MOL      0.105210
    134 N12         6.0860    1.2390   -1.8220 n         1 MOL      0.015477
    135 C45         6.2350    2.7020   -1.5450 c3        1 MOL     -0.102843
    136 C46         5.6990    2.9740   -0.1850 c         1 MOL      0.409986
    137 O20         6.0980    3.8360    0.5350 o         1 MOL     -0.500731
    138 C47         5.4780    3.4270   -2.6970 c3        1 MOL      0.027795
    139 C48         5.2470    2.3300   -3.7670 c3        1 MOL     -0.083447
    140 C49         5.2050    1.0220   -2.9300 c3        1 MOL     -0.136215
    141 H60         7.2830    2.9680   -1.4890 h1        1 MOL      0.093189
    142 H61         4.5020    3.8550   -2.5010 hc        1 MOL      0.038159
    143 H62         6.0610    4.2500   -3.1200 hc        1 MOL      0.038159
    144 H63         4.3000    2.5230   -4.2690 hc        1 MOL      0.050497
    145 H64         5.9950    2.3260   -4.5670 hc        1 MOL      0.050497
    146 H65         4.1960    0.8360   -2.5750 h1        1 MOL      0.066973
    147 H66         5.5100    0.0920   -3.4200 h1        1 MOL      0.066973
    148 N13         4.6340    2.2990    0.1960 n         1 MOL     -0.152616
    149 C50         3.9850    2.3820    1.5840 c3        1 MOL     -0.301798
    150 C51         4.9290    1.8780    2.6920 c         1 MOL      0.498131
    151 O21         5.1300    2.5520    3.7300 o         1 MOL     -0.554846
    152 C52         2.5330    1.7460    1.5040 c3        1 MOL      0.066959
    153 C53         1.6480    2.4130    0.4510 c3        1 MOL     -0.290205
    154 C54         0.2950    1.6830    0.3420 c         1 MOL      0.596463
    155 O22        -0.6940    2.2510   -0.2080 o         1 MOL     -0.665876
    156 O23         0.0310    0.5520    0.8650 o         1 MOL     -0.665876
    157 H67         4.3690    1.5200   -0.3930 hn        1 MOL      0.124604
    158 H68         3.8550    3.4250    1.8420 h1        1 MOL      0.178915
    159 H69         2.0350    1.7200    2.4720 hc        1 MOL      0.033240
    160 H70         2.6340    0.6900    1.2560 hc        1 MOL      0.033240
    161 H71         2.1360    2.2960   -0.5140 hc        1 MOL      0.128699
    162 H72         1.5440    3.4490    0.7750 hc        1 MOL      0.128699
    163 N14         5.5810    0.7260    2.4790 n         1 MOL     -0.037902
    164 C55         6.6090    0.1300    3.3960 c3        1 MOL     -0.210315
    165 H73         6.3870    0.4140    4.4240 h1        1 MOL      0.078992
    166 H74         6.5890   -0.9560    3.3070 h1        1 MOL      0.078992
    167 H75         7.5980    0.5000    3.1230 h1        1 MOL      0.078992
    168 H76         5.3750    0.1310    1.6890 hn        1 MOL      0.068886
    169 Ca1        -2.2990    0.0210   -0.0890 Ca        1 MOL      1.653506
    170 O24        -4.2270   -0.9530    1.5930 oh        1 MOL     -0.824427
    171 H77        -3.5950   -1.1190    2.2970 ho        1 MOL      0.399855
    172 H78        -5.0390   -0.7590    2.0600 ho        1 MOL      0.399855
    173 O25        -2.0020    0.4430    2.7740 oh        1 MOL     -0.824427
    174 H79        -1.1470    0.8680    2.8920 ho        1 MOL      0.399855
    175 H80        -2.4170    0.4820    3.6330 ho        1 MOL      0.399855
@<TRIPOS>BOND
     1    1    2 1   
     2    1    4 1   
     3    1    5 1   
     4    1    6 1   
     5    2    3 2   
     6    2    7 1   
     7    7    8 1   
     8    7   15 1   
     9    8    9 1   
    10    8   11 1   
    11    8   16 1   
    12    9   10 2   
    13    9   19 1   
    14   11   12 1   
    15   11   17 1   
    16   11   18 1   
    17   12   13 1   
    18   12   14 1   
    19   19   20 1   
    20   19   24 1   
    21   20   21 1   
    22   20   23 1   
    23   20   25 1   
    24   21   22 2   
    25   21   29 1   
    26   23   26 1   
    27   23   27 1   
    28   23   28 1   
    29   29   30 1   
    30   29   37 1   
    31   30   31 1   
    32   30   33 1   
    33   30   38 1   
    34   31   32 2   
    35   31   41 1   
    36   33   34 1   
    37   33   39 1   
    38   33   40 1   
    39   34   35 1   
    40   34   36 1   
    41   41   42 1   
    42   41   45 1   
    43   42   43 1   
    44   42   46 1   
    45   42   47 1   
    46   43   44 2   
    47   43   48 1   
    48   48   49 1   
    49   48   56 1   
    50   49   50 1   
    51   49   52 1   
    52   49   57 1   
    53   50   51 2   
    54   50   62 1   
    55   52   53 1   
    56   52   58 1   
    57   52   59 1   
    58   53   54 1   
    59   53   55 2   
    60   54   60 1   
    61   54   61 1   
    62   62   63 1   
    63   62   66 1   
    64   63   64 1   
    65   63   67 1   
    66   63   68 1   
    67   64   65 2   
    68   64   69 1   
    69   69   70 1   
    70   69   76 1   
    71   70   71 1   
    72   70   73 1   
    73   70   77 1   
    74   71   72 2   
    75   71   83 1   
    76   73   74 1   
    77   73   75 1   
    78   73   78 1   
    79   74   80 1   
    80   74   81 1   
    81   74   82 1   
    82   75   79 1   
    83   83   84 1   
    84   83   91 1   
    85   84   85 1   
    86   84   87 1   
    87   84   92 1   
    88   85   86 2   
    89   85  102 1   
    90   87   88 1   
    91   87   89 1   
    92   87   93 1   
    93   88   90 1   
    94   88   94 1   
    95   88   95 1   
    96   89   96 1   
    97   89   97 1   
    98   89   98 1   
    99   90   99 1   
   100   90  100 1   
   101   90  101 1   
   102  102  103 1   
   103  102  110 1   
   104  103  104 1   
   105  103  106 1   
   106  103  111 1   
   107  104  105 2   
   108  104  114 1   
   109  106  107 1   
   110  106  112 1   
   111  106  113 1   
   112  107  108 1   
   113  107  109 1   
   114  114  115 1   
   115  114  125 1   
   116  115  116 1   
   117  115  118 1   
   118  115  126 1   
   119  116  117 2   
   120  116  134 1   
   121  118  119 1   
   122  118  127 1   
   123  118  128 1   
   124  119  120 ar  
   125  119  121 ar  
   126  120  122 ar  
   127  120  129 1   
   128  121  123 ar  
   129  121  130 1   
   130  122  124 ar  
   131  122  131 1   
   132  123  124 ar  
   133  123  132 1   
   134  124  133 1   
   135  134  135 1   
   136  134  140 1   
   137  135  136 1   
   138  135  138 1   
   139  135  141 1   
   140  136  137 2   
   141  136  148 1   
   142  138  139 1   
   143  138  142 1   
   144  138  143 1   
   145  139  140 1   
   146  139  144 1   
   147  139  145 1   
   148  140  146 1   
   149  140  147 1   
   150  148  149 1   
   151  148  157 1   
   152  149  150 1   
   153  149  152 1   
   154  149  158 1   
   155  150  151 2   
   156  150  163 1   
   157  152  153 1   
   158  152  159 1   
   159  152  160 1   
   160  153  154 1   
   161  153  161 1   
   162  153  162 1   
   163  154  155 1   
   164  154  156 1   
   165  163  164 1   
   166  163  168 1   
   167  164  165 1   
   168  164  166 1   
   169  164  167 1   
   170  170  171 1   
   171  170  172 1   
   172  173  174 1   
   173  173  175 1   
@<TRIPOS>SUBSTRUCTURE
     1 MOL         1 TEMP              0 ****  ****    0 ROOT
