@<TRIPOS>MOLECULE
MOL
  189   185     1     0     0
SMALL
resp


@<TRIPOS>ATOM
      1 C1          0.0760    3.9890   -4.6280 c3        1 MOL     -0.391122
      2 C2          0.5190    3.2000   -3.4370 c         1 MOL      0.621843
      3 O1         -0.0560    3.3350   -2.3690 o         1 MOL     -0.533847
      4 H1         -0.0970    5.0240   -4.3350 hc        1 MOL      0.093573
      5 H2          0.8490    3.9540   -5.3960 hc        1 MOL      0.093573
      6 H3         -0.8480    3.5650   -5.0230 hc        1 MOL      0.093573
      7 N1          1.6340    2.4900   -3.5350 n         1 MOL     -0.484027
      8 C3          2.4540    2.0010   -2.3760 c3        1 MOL      0.057278
      9 C4          3.1440    3.1140   -1.5210 c         1 MOL      0.476550
     10 O2          4.3480    3.2180   -1.4710 o         1 MOL     -0.473031
     11 C5          3.4610    0.9000   -2.8600 c3        1 MOL     -0.158100
     12 C6          4.1670    0.2540   -1.6550 c         1 MOL      0.661205
     13 O3          5.3140   -0.1170   -1.8390 o         1 MOL     -0.630538
     14 O4          3.6730    0.1150   -0.4810 o         1 MOL     -0.630538
     15 H4          1.9400    2.2480   -4.4700 hn        1 MOL      0.296291
     16 H5          1.7200    1.5260   -1.7200 h1        1 MOL      0.043014
     17 H6          4.2570    1.3390   -3.4550 hc        1 MOL      0.053401
     18 H7          3.0150    0.0900   -3.4340 hc        1 MOL      0.053401
     19 N2          2.3720    3.9210   -0.8580 n         1 MOL     -0.422968
     20 C7          2.8510    5.1410   -0.1630 c3        1 MOL     -0.006567
     21 C8          3.7070    4.9360    1.1580 c         1 MOL      0.426176
     22 O5          4.3710    5.9030    1.6090 o         1 MOL     -0.556661
     23 C9          1.7080    6.1320    0.1410 c3        1 MOL     -0.171114
     24 C10         0.9540    6.6770   -1.1310 c3        1 MOL      0.284103
     25 C11        -0.0900    7.7110   -0.7190 c3        1 MOL     -0.175095
     26 C12        -0.8230    8.2130   -1.9650 c3        1 MOL      0.037746
     27 N3         -1.8500    9.1950   -1.6820 n4        1 MOL     -0.293756
     28 H8          1.3800    3.7280   -0.9280 hn        1 MOL      0.359727
     29 H9          3.5270    5.6330   -0.8700 h1        1 MOL      0.100502
     30 H10         2.1170    7.0370    0.5920 hc        1 MOL      0.050655
     31 H11         1.0490    5.6000    0.8170 hc        1 MOL      0.050655
     32 H12         0.4280    5.9330   -1.7270 hc        1 MOL     -0.051672
     33 H13         1.6880    7.1930   -1.7560 hc        1 MOL     -0.051672
     34 H14         0.4780    8.5400   -0.2810 hc        1 MOL      0.061311
     35 H15        -0.7540    7.2260   -0.0120 hc        1 MOL      0.061311
     36 H16        -1.3610    7.4410   -2.5150 hx        1 MOL      0.094918
     37 H17        -0.1110    8.7500   -2.5850 hx        1 MOL      0.094918
     38 H18        -2.4310    9.5360   -2.4350 hn        1 MOL      0.305528
     39 H19        -2.4190    8.8400   -0.9390 hn        1 MOL      0.305528
     40 H20        -1.5110   10.1090   -1.3880 hn        1 MOL      0.305528
     41 N4          3.6830    3.7270    1.6840 n         1 MOL     -0.170463
     42 C13         4.4510    3.2360    2.8150 c3        1 MOL      0.076616
     43 C14         5.6680    2.4320    2.3140 c         1 MOL      0.332935
     44 O6          6.6560    2.2220    3.0800 o         1 MOL     -0.538376
     45 C15         3.6490    2.5450    3.9420 c3        1 MOL     -0.372172
     46 C16         2.6580    1.4370    3.5630 c         1 MOL      0.826962
     47 O7          2.0600    0.8510    4.4940 o         1 MOL     -0.734975
     48 O8          2.4060    1.2520    2.3750 o         1 MOL     -0.734975
     49 H21         2.9980    3.0910    1.3050 hn        1 MOL      0.220412
     50 H22         4.7840    4.1440    3.3150 h1        1 MOL      0.075787
     51 H23         3.0660    3.2870    4.4980 hc        1 MOL      0.100659
     52 H24         4.5000    2.1480    4.4940 hc        1 MOL      0.100659
     53 N5          5.6660    1.8380    1.1610 n         1 MOL      0.066456
     54 C17         6.8670    1.3640    0.4400 c3        1 MOL     -0.095134
     55 C18         7.2190   -0.0810    0.7980 c         1 MOL      0.441494
     56 O9          8.3910   -0.3530    1.1720 o         1 MOL     -0.565800
     57 H25         4.8120    1.8950    0.6090 hn        1 MOL     -0.085932
     58 H26         7.7860    1.8890    0.6880 h1        1 MOL      0.091313
     59 H27         6.7730    1.5400   -0.6310 h1        1 MOL      0.091313
     60 N6          6.2440   -1.0090    1.0040 n         1 MOL     -0.130412
     61 C19         6.4820   -2.3990    1.4710 c3        1 MOL      0.039131
     62 C20         6.5720   -3.2590    0.3030 c         1 MOL      0.344210
     63 O10         7.0070   -4.3880    0.3640 o         1 MOL     -0.525490
     64 C21         5.4210   -2.8220    2.5490 c3        1 MOL     -0.306318
     65 C22         3.9920   -2.4550    2.2000 c         1 MOL      0.674607
     66 O11         3.3340   -1.7190    2.9630 o         1 MOL     -0.643144
     67 O12         3.5890   -2.6580    1.0070 o         1 MOL     -0.643144
     68 H28         5.3270   -0.7450    0.6520 hn        1 MOL      0.083800
     69 H29         7.4660   -2.3390    1.9460 h1        1 MOL      0.127106
     70 H30         5.7000   -2.2730    3.4570 hc        1 MOL      0.089213
     71 H31         5.5570   -3.8850    2.7390 hc        1 MOL      0.089213
     72 N7          6.2900   -2.7540   -0.9230 n         1 MOL     -0.171248
     73 C23         6.2580   -3.6170   -2.1480 c3        1 MOL     -0.187875
     74 C24         4.9200   -4.2790   -2.3810 c         1 MOL      0.536746
     75 O13         4.8190   -5.1180   -3.2730 o         1 MOL     -0.570118
     76 H32         6.0470   -1.7880   -1.0100 hn        1 MOL      0.176877
     77 H33         7.1380   -4.2580   -2.1460 h1        1 MOL      0.111645
     78 H34         6.4370   -2.8880   -2.9430 h1        1 MOL      0.111645
     79 N8          3.8320   -3.8620   -1.6750 n         1 MOL     -0.197149
     80 C25         2.4730   -4.4320   -1.8180 c3        1 MOL     -0.244709
     81 C26         1.4070   -3.3510   -1.7380 c         1 MOL      0.721215
     82 O14         1.6230   -2.2980   -1.1600 o         1 MOL     -0.721459
     83 C27         2.2500   -5.5420   -0.7910 c3        1 MOL      0.478212
     84 C28         2.9810   -6.8550   -1.0450 c3        1 MOL     -0.411193
     85 O15         2.4590   -5.2220    0.5830 oh        1 MOL     -0.637279
     86 H35         3.9310   -3.1190   -0.9860 hn        1 MOL      0.208692
     87 H36         2.4730   -4.9210   -2.7910 h1        1 MOL      0.106559
     88 H37         1.2300   -5.9240   -0.8690 h1        1 MOL      0.005500
     89 H38         3.1110   -4.5150    0.5780 ho        1 MOL      0.407029
     90 H39         4.0590   -6.7070   -0.9140 hc        1 MOL      0.102487
     91 H40         2.5540   -7.5680   -0.3430 hc        1 MOL      0.102487
     92 H41         2.6210   -7.1760   -2.0270 hc        1 MOL      0.102487
     93 N9          0.1640   -3.6520   -2.1440 n         1 MOL     -0.702808
     94 C29        -1.0790   -2.7530   -2.2010 c3        1 MOL      0.140680
     95 C30        -2.1110   -3.3790   -1.2790 c         1 MOL      0.493679
     96 O16        -2.4280   -4.5840   -1.3720 o         1 MOL     -0.568778
     97 C31        -1.4140   -2.2980   -3.6770 c3        1 MOL      0.019359
     98 C32        -0.2890   -1.3630   -4.2190 c3        1 MOL      0.005915
     99 C33        -2.8740   -1.7640   -3.7370 c3        1 MOL     -0.085851
    100 C34        -0.7670   -0.5920   -5.4590 c3        1 MOL     -0.249621
    101 H42         0.0760   -4.4530   -2.7560 hn        1 MOL      0.316366
    102 H43        -0.7780   -1.7710   -1.8140 h1        1 MOL      0.114653
    103 H44        -1.4930   -3.1920   -4.3080 hc        1 MOL      0.022330
    104 H45         0.5930   -1.9480   -4.5010 hc        1 MOL      0.051562
    105 H46        -0.1970   -0.6470   -3.3990 hc        1 MOL      0.051562
    106 H47        -3.6240   -2.4620   -3.3630 hc        1 MOL      0.007445
    107 H48        -3.0070   -0.7970   -3.2420 hc        1 MOL      0.007445
    108 H49        -3.1460   -1.5460   -4.7690 hc        1 MOL      0.007445
    109 H50        -1.1990   -1.2740   -6.1820 hc        1 MOL      0.067381
    110 H51        -1.5180    0.1240   -5.1130 hc        1 MOL      0.067381
    111 H52         0.1000   -0.0870   -5.8910 hc        1 MOL      0.067381
    112 N10        -2.5430   -2.6150   -0.3280 n         1 MOL     -0.104170
    113 C35        -3.6380   -3.0020    0.6190 c3        1 MOL     -0.141099
    114 C36        -4.9880   -2.4540    0.1020 c         1 MOL      0.439580
    115 O17        -5.0660   -1.6070   -0.8050 o         1 MOL     -0.342605
    116 C37        -3.4530   -2.2540    1.9540 c3        1 MOL      0.152931
    117 C38        -2.5060   -2.9760    2.9520 c3        1 MOL     -0.037362
    118 O18        -3.1550   -0.8770    1.8370 oh        1 MOL     -0.735247
    119 H53        -2.1630   -1.6910   -0.1990 hn        1 MOL      0.084971
    120 H54        -3.5660   -4.0720    0.8090 h1        1 MOL      0.126735
    121 H55        -4.4470   -2.2490    2.3970 h1        1 MOL      0.037322
    122 H56        -2.3430   -0.7690    1.3400 ho        1 MOL      0.463829
    123 H57        -1.5760   -3.1900    2.4250 hc        1 MOL      0.020466
    124 H58        -2.4300   -2.4270    3.8900 hc        1 MOL      0.020466
    125 H59        -2.8650   -3.9480    3.2760 hc        1 MOL      0.020466
    126 N11        -6.1410   -2.8510    0.7430 n         1 MOL     -0.421617
    127 C39        -7.5030   -2.3290    0.4070 c3        1 MOL     -0.000742
    128 C40        -7.6470   -0.8750    0.4170 c         1 MOL      0.218932
    129 O19        -8.0790   -0.3560   -0.6390 o         1 MOL     -0.461778
    130 C41        -8.6660   -2.8860    1.3220 c3        1 MOL      0.334121
    131 C42        -8.8380   -4.2870    0.8440 c3        1 MOL     -0.406138
    132 O20        -8.1900   -3.0090    2.6350 oh        1 MOL     -0.670250
    133 H60        -6.1440   -3.4470    1.5600 hn        1 MOL      0.266197
    134 H61        -7.8550   -2.5620   -0.5990 h1        1 MOL      0.118670
    135 H62        -9.6180   -2.3630    1.2400 h1        1 MOL      0.081813
    136 H63        -8.2180   -3.9370    2.8610 ho        1 MOL      0.432333
    137 H64        -9.0110   -4.2860   -0.2290 hc        1 MOL      0.108526
    138 H65        -8.0450   -4.9510    1.1970 hc        1 MOL      0.108526
    139 H66        -9.7470   -4.6450    1.3320 hc        1 MOL      0.108526
    140 N12        -7.1280   -0.1520    1.4280 n         1 MOL     -0.112514
    141 C43        -7.1380    1.3440    1.4410 c3        1 MOL     -0.082656
    142 C44        -6.3850    1.9280    0.2970 c         1 MOL      0.376542
    143 O21        -6.8830    2.8270   -0.2880 o         1 MOL     -0.502347
    144 C45        -6.7320    1.9470    2.7270 c3        1 MOL     -0.205290
    145 C46        -5.3160    1.4760    3.1010 c3        1 MOL      0.250079
    146 C47        -4.8730    1.6830    4.5430 c3        1 MOL     -0.238919
    147 C48        -3.6350    0.8160    4.7020 c3        1 MOL      0.205560
    148 N13        -3.0290    1.0400    6.0640 n4        1 MOL     -0.516803
    149 H67        -6.9490   -0.6180    2.3080 hn        1 MOL      0.190587
    150 H68        -8.1960    1.5560    1.2640 h1        1 MOL      0.120111
    151 H69        -7.4650    1.7000    3.4940 hc        1 MOL      0.070511
    152 H70        -6.7580    3.0310    2.6060 hc        1 MOL      0.070511
    153 H71        -4.6450    2.0320    2.4570 hc        1 MOL      0.001119
    154 H72        -5.2150    0.4020    2.9510 hc        1 MOL      0.001119
    155 H73        -5.6380    1.3490    5.2480 hc        1 MOL      0.047422
    156 H74        -4.6510    2.7440    4.6860 hc        1 MOL      0.047422
    157 H75        -2.9350    1.0980    3.9100 hx        1 MOL      0.066903
    158 H76        -3.8910   -0.2270    4.4860 hx        1 MOL      0.066903
    159 H77        -3.5950    0.5600    6.7560 hn        1 MOL      0.363582
    160 H78        -2.0470    0.8020    6.1290 hn        1 MOL      0.363582
    161 H79        -3.0340    2.0260    6.2660 hn        1 MOL      0.363582
    162 N14        -5.2850    1.2970   -0.1020 n         1 MOL     -0.015444
    163 C49        -4.5160    1.7990   -1.3220 c3        1 MOL     -0.237024
    164 C50        -5.1250    1.4500   -2.6990 c         1 MOL      0.478275
    165 O22        -5.0400    2.3210   -3.6160 o         1 MOL     -0.567201
    166 C51        -3.0600    1.3590   -1.2650 c3        1 MOL      0.069891
    167 C52        -2.2700    1.7910   -0.0320 c3        1 MOL     -0.258741
    168 C53        -0.9230    0.9130    0.0070 c         1 MOL      0.775811
    169 O23        -0.8990   -0.2900    0.2910 o         1 MOL     -0.748202
    170 O24         0.1600    1.5130   -0.0940 o         1 MOL     -0.748202
    171 H80        -5.1230    0.3510    0.2260 hn        1 MOL      0.165281
    172 H81        -4.5190    2.8910   -1.2880 h1        1 MOL      0.107429
    173 H82        -2.5590    1.7630   -2.1480 hc        1 MOL      0.048766
    174 H83        -3.1380    0.2850   -1.4220 hc        1 MOL      0.048766
    175 H84        -2.9720    1.6680    0.7860 hc        1 MOL      0.055514
    176 H85        -2.0480    2.8620   -0.0320 hc        1 MOL      0.055514
    177 N15        -5.7880    0.3020   -2.7970 n         1 MOL     -0.037811
    178 C54        -6.5520   -0.0460   -3.9740 c3        1 MOL     -0.279455
    179 H86        -7.0510    0.8440   -4.3590 h1        1 MOL      0.105960
    180 H87        -5.8840   -0.4460   -4.7370 h1        1 MOL      0.105960
    181 H88        -7.2980   -0.7970   -3.7150 h1        1 MOL      0.105960
    182 H89        -5.8570   -0.1870   -1.9200 hn        1 MOL      0.125942
    183 Ca1         1.6470   -0.7760    0.9690 Ca        1 MOL      1.775063
    184 O25         0.1560   -0.8130    3.5500 oh        1 MOL     -0.849353
    185 H90         0.9700   -0.5570    3.9760 ho        1 MOL      0.388754
    186 H91        -0.4000   -1.1130    4.2730 ho        1 MOL      0.388754
    187 O26         0.9070   -3.2170    1.8680 oh        1 MOL     -0.849353
    188 H92         1.2560   -3.8690    1.2610 ho        1 MOL      0.388754
    189 H93         0.3870   -3.7220    2.4910 ho        1 MOL      0.388754
@<TRIPOS>BOND
     1    1    2 1   
     2    1    4 1   
     3    1    5 1   
     4    1    6 1   
     5    2    3 2   
     6    2    7 1   
     7    7    8 1   
     8    7   15 1   
     9    8    9 1   
    10    8   11 1   
    11    8   16 1   
    12    9   10 2   
    13    9   19 1   
    14   11   12 1   
    15   11   17 1   
    16   11   18 1   
    17   12   13 1   
    18   12   14 1   
    19   19   20 1   
    20   19   28 1   
    21   20   21 1   
    22   20   23 1   
    23   20   29 1   
    24   21   22 2   
    25   21   41 1   
    26   23   24 1   
    27   23   30 1   
    28   23   31 1   
    29   24   25 1   
    30   24   32 1   
    31   24   33 1   
    32   25   26 1   
    33   25   34 1   
    34   25   35 1   
    35   26   27 1   
    36   26   36 1   
    37   26   37 1   
    38   27   38 1   
    39   27   39 1   
    40   27   40 1   
    41   41   42 1   
    42   41   49 1   
    43   42   43 1   
    44   42   45 1   
    45   42   50 1   
    46   43   44 2   
    47   43   53 1   
    48   45   46 1   
    49   45   51 1   
    50   45   52 1   
    51   46   47 1   
    52   46   48 1   
    53   53   54 1   
    54   53   57 1   
    55   54   55 1   
    56   54   58 1   
    57   54   59 1   
    58   55   56 2   
    59   55   60 1   
    60   60   61 1   
    61   60   68 1   
    62   61   62 1   
    63   61   64 1   
    64   61   69 1   
    65   62   63 2   
    66   62   72 1   
    67   64   65 1   
    68   64   70 1   
    69   64   71 1   
    70   65   66 1   
    71   65   67 1   
    72   72   73 1   
    73   72   76 1   
    74   73   74 1   
    75   73   77 1   
    76   73   78 1   
    77   74   75 2   
    78   74   79 1   
    79   79   80 1   
    80   79   86 1   
    81   80   81 1   
    82   80   83 1   
    83   80   87 1   
    84   81   82 2   
    85   81   93 1   
    86   83   84 1   
    87   83   85 1   
    88   83   88 1   
    89   84   90 1   
    90   84   91 1   
    91   84   92 1   
    92   85   89 1   
    93   93   94 1   
    94   93  101 1   
    95   94   95 1   
    96   94   97 1   
    97   94  102 1   
    98   95   96 2   
    99   95  112 1   
   100   97   98 1   
   101   97   99 1   
   102   97  103 1   
   103   98  100 1   
   104   98  104 1   
   105   98  105 1   
   106   99  106 1   
   107   99  107 1   
   108   99  108 1   
   109  100  109 1   
   110  100  110 1   
   111  100  111 1   
   112  112  113 1   
   113  112  119 1   
   114  113  114 1   
   115  113  116 1   
   116  113  120 1   
   117  114  115 2   
   118  114  126 1   
   119  116  117 1   
   120  116  118 1   
   121  116  121 1   
   122  117  123 1   
   123  117  124 1   
   124  117  125 1   
   125  118  122 1   
   126  126  127 1   
   127  126  133 1   
   128  127  128 1   
   129  127  130 1   
   130  127  134 1   
   131  128  129 2   
   132  128  140 1   
   133  130  131 1   
   134  130  132 1   
   135  130  135 1   
   136  131  137 1   
   137  131  138 1   
   138  131  139 1   
   139  132  136 1   
   140  140  141 1   
   141  140  149 1   
   142  141  142 1   
   143  141  144 1   
   144  141  150 1   
   145  142  143 2   
   146  142  162 1   
   147  144  145 1   
   148  144  151 1   
   149  144  152 1   
   150  145  146 1   
   151  145  153 1   
   152  145  154 1   
   153  146  147 1   
   154  146  155 1   
   155  146  156 1   
   156  147  148 1   
   157  147  157 1   
   158  147  158 1   
   159  148  159 1   
   160  148  160 1   
   161  148  161 1   
   162  162  163 1   
   163  162  171 1   
   164  163  164 1   
   165  163  166 1   
   166  163  172 1   
   167  164  165 2   
   168  164  177 1   
   169  166  167 1   
   170  166  173 1   
   171  166  174 1   
   172  167  168 1   
   173  167  175 1   
   174  167  176 1   
   175  168  169 1   
   176  168  170 1   
   177  177  178 1   
   178  177  182 1   
   179  178  179 1   
   180  178  180 1   
   181  178  181 1   
   182  184  185 1   
   183  184  186 1   
   184  187  188 1   
   185  187  189 1   
@<TRIPOS>SUBSTRUCTURE
     1 MOL         1 TEMP              0 ****  ****    0 ROOT
