@<TRIPOS>MOLECULE
MOL
  176   174     1     0     0
SMALL
resp


@<TRIPOS>ATOM
      1 C1          0.8500    3.3010    6.4430 c3        1 MOL     -0.393704
      2 C2          0.6660    2.7320    5.0150 c         1 MOL      0.762949
      3 O1          1.5330    2.0540    4.5060 o         1 MOL     -0.585775
      4 H1          1.8540    3.7140    6.5430 hc        1 MOL      0.101705
      5 H2          0.1150    4.0860    6.6190 hc        1 MOL      0.101705
      6 H3          0.7110    2.5030    7.1720 hc        1 MOL      0.101705
      7 N1         -0.4330    3.1290    4.3340 n         1 MOL     -0.646512
      8 C3         -0.7010    2.8120    2.9480 c3        1 MOL      0.236390
      9 C4         -0.6720    4.0270    2.0240 c         1 MOL      0.640677
     10 O2         -1.1810    5.0690    2.4220 o         1 MOL     -0.601860
     11 C5         -1.9860    2.0270    2.8880 c3        1 MOL     -0.216648
     12 C6         -2.4630    1.5550    1.5180 c         1 MOL      0.891954
     13 O3         -2.9780    0.4070    1.4150 o         1 MOL     -0.800052
     14 O4         -2.2350    2.1270    0.4250 o         1 MOL     -0.800052
     15 H4         -1.2100    3.2950    4.9500 hn        1 MOL      0.311848
     16 H5          0.1290    2.1800    2.6210 h1        1 MOL      0.013216
     17 H6         -2.8440    2.5670    3.2960 hc        1 MOL      0.038178
     18 H7         -1.8440    1.0860    3.4130 hc        1 MOL      0.038178
     19 N2         -0.0730    3.9640    0.8880 n         1 MOL     -0.480371
     20 C7          0.0570    5.0950   -0.0780 c3        1 MOL     -0.234968
     21 C8         -1.1940    5.3770   -0.9050 c         1 MOL      0.688636
     22 O5         -1.2710    6.4800   -1.4090 o         1 MOL     -0.592229
     23 C9          1.3100    4.8510   -0.9570 c3        1 MOL      0.223771
     24 C10         1.8210    6.1220   -1.7760 c3        1 MOL     -0.273431
     25 C11         3.1190    5.7970   -2.4530 c3        1 MOL      0.266833
     26 C12         3.6170    6.7880   -3.4750 c3        1 MOL     -0.033296
     27 N3          5.0220    6.5730   -3.9220 n4        1 MOL     -0.321544
     28 H8          0.2590    3.0530    0.5750 hn        1 MOL      0.267925
     29 H9          0.3460    5.9490    0.5390 h1        1 MOL      0.155234
     30 H10         1.1040    4.0660   -1.6930 hc        1 MOL      0.005291
     31 H11         2.0880    4.4700   -0.3010 hc        1 MOL      0.005291
     32 H12         1.9350    6.9650   -1.0890 hc        1 MOL      0.067461
     33 H13         1.0950    6.3520   -2.5550 hc        1 MOL      0.067461
     34 H14         3.1550    4.8270   -2.9420 hc        1 MOL     -0.036869
     35 H15         3.8500    5.6220   -1.6620 hc        1 MOL     -0.036869
     36 H16         3.5420    7.7990   -3.0650 hx        1 MOL      0.084170
     37 H17         2.9510    6.6120   -4.3290 hx        1 MOL      0.084170
     38 H18         5.0400    6.9200   -4.8680 hn        1 MOL      0.319759
     39 H19         5.7300    7.0570   -3.3850 hn        1 MOL      0.319759
     40 H20         5.2910    5.6080   -3.9670 hn        1 MOL      0.319759
     41 N4         -2.1620    4.4580   -1.0080 n         1 MOL     -0.540580
     42 C13        -3.3720    4.5730   -1.7820 c3        1 MOL      0.196200
     43 C14        -4.6590    4.2750   -1.0320 c         1 MOL      0.427352
     44 O6         -5.7160    4.7720   -1.4000 o         1 MOL     -0.553507
     45 C15        -3.2280    3.6990   -3.0060 c3        1 MOL     -0.219475
     46 C16        -2.8410    2.2120   -2.7430 c         1 MOL      0.777041
     47 O7         -3.6130    1.5180   -2.1040 o         1 MOL     -0.766381
     48 O8         -1.6890    1.7760   -3.0150 o         1 MOL     -0.766381
     49 H21        -1.9970    3.5550   -0.5900 hn        1 MOL      0.400299
     50 H22        -3.5260    5.6100   -2.0710 h1        1 MOL      0.060848
     51 H23        -2.3670    4.1120   -3.5330 hc        1 MOL      0.035736
     52 H24        -4.1000    3.8690   -3.6300 hc        1 MOL      0.035736
     53 N5         -4.5470    3.5160    0.0440 n         1 MOL     -0.130851
     54 C17        -5.6210    3.2350    1.0590 c3        1 MOL     -0.215594
     55 C18        -6.5500    2.0650    0.6810 c         1 MOL      0.584445
     56 O9         -7.7050    1.9890    1.0850 o         1 MOL     -0.594260
     57 H25        -3.6150    3.1860    0.2390 hn        1 MOL      0.079629
     58 H26        -6.2580    4.1170    1.1500 h1        1 MOL      0.111623
     59 H27        -5.1440    3.0710    2.0290 h1        1 MOL      0.111623
     60 N6         -6.0860    1.1710   -0.1790 n         1 MOL     -0.207477
     61 C19        -6.8580    0.0260   -0.6760 c3        1 MOL     -0.034845
     62 C20        -6.8400   -1.2000    0.2980 c         1 MOL      0.383090
     63 O10        -7.3560   -2.2980   -0.0180 o         1 MOL     -0.509701
     64 C21        -6.3290   -0.4230   -2.0840 c3        1 MOL     -0.318296
     65 C22        -5.0900   -1.3680   -2.0610 c         1 MOL      0.655588
     66 N7         -5.1260   -2.3590   -2.9780 n         1 MOL     -0.701141
     67 O11        -4.1760   -1.3450   -1.2580 o         1 MOL     -0.626442
     68 H28        -5.1040    1.1590   -0.4140 hn        1 MOL      0.161830
     69 H29        -7.8870    0.3780   -0.8130 h1        1 MOL      0.147749
     70 H30        -6.0470    0.4400   -2.6870 hc        1 MOL      0.129006
     71 H31        -7.1040   -0.8910   -2.7000 hc        1 MOL      0.129006
     72 H32        -5.8650   -2.5150   -3.6500 hn        1 MOL      0.343781
     73 H33        -4.3450   -3.0000   -2.9690 hn        1 MOL      0.343781
     74 N8         -6.3590   -1.0280    1.5410 n         1 MOL     -0.234764
     75 C23        -6.2910   -2.1140    2.4880 c3        1 MOL     -0.164534
     76 C24        -5.1660   -3.1750    2.4170 c         1 MOL      0.482997
     77 O12        -5.1970   -4.0130    3.3110 o         1 MOL     -0.553224
     78 H34        -6.0990   -0.1230    1.8920 hn        1 MOL      0.253738
     79 H35        -7.1970   -2.7070    2.3830 h1        1 MOL      0.120000
     80 H36        -6.4480   -1.7190    3.4970 h1        1 MOL      0.120000
     81 N9         -4.1270   -3.1770    1.5580 n         1 MOL     -0.278957
     82 C25        -2.8850   -3.8910    1.6940 c3        1 MOL      0.088134
     83 C26        -1.6170   -3.0690    1.3200 c         1 MOL      0.517335
     84 O13        -1.8520   -2.0970    0.6310 o         1 MOL     -0.605752
     85 C27        -3.0660   -5.1880    0.9600 c3        1 MOL     -0.235812
     86 C28        -3.0110   -5.3140   -0.5600 ca        1 MOL      0.111367
     87 C29        -1.8810   -4.9640   -1.2910 ca        1 MOL     -0.157186
     88 C30        -4.1630   -5.7990   -1.2460 ca        1 MOL     -0.157186
     89 C31        -1.8510   -5.1290   -2.6690 ca        1 MOL     -0.259124
     90 C32        -4.0890   -6.0110   -2.6250 ca        1 MOL     -0.259124
     91 C33        -2.9630   -5.6270   -3.3420 ca        1 MOL      0.302796
     92 O14        -2.9690   -5.7310   -4.7160 oh        1 MOL     -0.490504
     93 H37        -4.1550   -2.5420    0.7780 hn        1 MOL      0.301334
     94 H38        -2.7730   -4.1710    2.7320 h1        1 MOL      0.081639
     95 H39        -3.9600   -5.6870    1.3240 hc        1 MOL      0.085580
     96 H40        -2.3020   -5.8870    1.3180 hc        1 MOL      0.085580
     97 H41        -0.9790   -4.5670   -0.8300 ha        1 MOL      0.163778
     98 H42        -5.0100   -6.0880   -0.6420 ha        1 MOL      0.163778
     99 H43        -1.0270   -4.8000   -3.3020 ha        1 MOL      0.148898
    100 H44        -4.9160   -6.3520   -3.2450 ha        1 MOL      0.148898
    101 H45        -2.0860   -5.6730   -5.0920 ho        1 MOL      0.352032
    102 N10        -0.4200   -3.5680    1.5500 n         1 MOL     -0.543517
    103 C34         0.8800   -2.8990    1.1960 c3        1 MOL     -0.142064
    104 C35         2.0200   -3.8460    0.7160 c         1 MOL      0.391323
    105 O15         2.0300   -5.0520    0.9780 o         1 MOL     -0.492468
    106 C36         1.4050   -2.0600    2.3920 c3        1 MOL      0.271406
    107 C37         1.8330   -2.9790    3.6210 c3        1 MOL     -0.074894
    108 C38         0.5340   -0.9840    2.9040 c3        1 MOL      0.013591
    109 C39         2.6660   -2.2680    4.7460 c3        1 MOL     -0.075416
    110 H46        -0.3310   -4.4000    2.1180 hn        1 MOL      0.325088
    111 H47         0.6470   -2.1410    0.4550 h1        1 MOL      0.172969
    112 H48         2.2400   -1.4670    2.0310 hc        1 MOL     -0.211565
    113 H49         2.3750   -3.8540    3.2740 hc        1 MOL      0.030553
    114 H50         0.9230   -3.2870    4.1470 hc        1 MOL      0.030553
    115 H51         1.0210   -0.2080    3.4990 hc        1 MOL      0.018038
    116 H52         0.0540   -0.5280    2.0310 hc        1 MOL      0.018038
    117 H53        -0.2010   -1.4420    3.5720 hc        1 MOL      0.018038
    118 H54         2.9380   -3.0730    5.4140 hc        1 MOL      0.021952
    119 H55         3.5950   -1.8250    4.3870 hc        1 MOL      0.021952
    120 H56         2.0370   -1.6160    5.3600 hc        1 MOL      0.021952
    121 N11         2.9300   -3.1890    0.0100 n         1 MOL     -0.173017
    122 C40         4.1290   -3.8070   -0.5950 c3        1 MOL      0.100384
    123 C41         5.4390   -3.2550   -0.1260 c         1 MOL      0.406660
    124 O16         5.4630   -2.2160    0.5900 o         1 MOL     -0.423353
    125 C42         4.0110   -3.7870   -2.1350 c3        1 MOL      0.182278
    126 O17         4.2330   -2.4630   -2.5800 oh        1 MOL     -0.590789
    127 H57         2.7510   -2.2080   -0.1250 hn        1 MOL      0.150658
    128 H58         4.1740   -4.8890   -0.4210 h1        1 MOL      0.034417
    129 H59         3.0260   -4.1550   -2.4210 h1        1 MOL      0.001181
    130 H60         4.7610   -4.4370   -2.5930 h1        1 MOL      0.001181
    131 H61         4.0740   -2.3960   -3.5200 ho        1 MOL      0.406162
    132 N12         6.5900   -3.7380   -0.6330 n         1 MOL     -0.405974
    133 C43         7.8900   -3.3120   -0.1550 c3        1 MOL      0.131741
    134 C44         8.0220   -1.7710   -0.4280 c         1 MOL      0.398566
    135 O18         8.4880   -1.0190    0.3850 o         1 MOL     -0.486301
    136 C45         9.0890   -4.0470   -0.7550 c3        1 MOL     -0.140851
    137 H62         6.5780   -4.5840   -1.1850 hn        1 MOL      0.286052
    138 H63         7.9490   -3.5720    0.9000 h1        1 MOL      0.076069
    139 H64         9.9680   -4.0880   -0.1180 hc        1 MOL      0.048778
    140 H65         8.7960   -5.0460   -1.0850 hc        1 MOL      0.048778
    141 H66         9.2620   -3.6100   -1.7410 hc        1 MOL      0.048778
    142 N13         7.4930   -1.2570   -1.5730 n         1 MOL     -0.247552
    143 C46         7.4740    0.1680   -1.8470 c3        1 MOL      0.084064
    144 C47         6.6410    1.0820   -0.9120 c         1 MOL      0.404066
    145 O19         7.1150    2.1190   -0.4660 o         1 MOL     -0.510625
    146 C48         6.8730    0.2310   -3.2700 c3        1 MOL     -0.422275
    147 H67         7.1380   -1.8370   -2.3160 hn        1 MOL      0.193094
    148 H68         8.5080    0.4830   -1.7730 h1        1 MOL      0.070415
    149 H69         5.7960    0.4100   -3.1930 hc        1 MOL      0.110575
    150 H70         7.2840    1.1260   -3.7230 hc        1 MOL      0.110575
    151 H71         7.2350   -0.6040   -3.8700 hc        1 MOL      0.110575
    152 N14         5.4460    0.6090   -0.5780 n         1 MOL     -0.173309
    153 C49         4.5650    1.3600    0.3860 c3        1 MOL     -0.129108
    154 C50         5.1370    1.2950    1.8070 c         1 MOL      0.456362
    155 O20         5.1720    2.3630    2.4580 o         1 MOL     -0.518961
    156 C51         3.2120    0.7860    0.3240 c3        1 MOL     -0.008268
    157 C52         2.4840    1.1660   -0.9730 c3        1 MOL      0.012564
    158 C53         1.0920    0.5680   -0.8690 c         1 MOL      0.733587
    159 O21         0.6720   -0.4000   -1.6310 o         1 MOL     -0.802055
    160 O22         0.2200    0.9500   -0.0100 o         1 MOL     -0.802055
    161 H72         5.1930   -0.3280   -0.8350 hn        1 MOL      0.187202
    162 H73         4.4200    2.4070    0.0920 h1        1 MOL      0.083399
    163 H74         2.6570    1.0850    1.2150 hc        1 MOL      0.098280
    164 H75         3.2940   -0.2950    0.2250 hc        1 MOL      0.098280
    165 H76         3.0030    0.8140   -1.8700 hc        1 MOL     -0.037499
    166 H77         2.4630    2.2560   -1.0650 hc        1 MOL     -0.037499
    167 N15         5.7360    0.1660    2.1980 n         1 MOL     -0.040677
    168 C54         6.5500    0.1380    3.3840 c3        1 MOL     -0.335879
    169 H78         7.4770    0.6810    3.2010 h1        1 MOL      0.118655
    170 H79         6.0110    0.6050    4.2070 h1        1 MOL      0.118655
    171 H80         6.7810   -0.8960    3.6420 h1        1 MOL      0.118655
    172 H81         5.6430   -0.7260    1.7260 hn        1 MOL      0.145345
    173 Ca1        -1.8770   -0.0830   -1.0390 Ca        1 MOL      1.795101
    174 O23        -1.6330   -1.8450   -2.9440 oh        1 MOL     -0.756847
    175 H82        -1.0740   -2.5180   -2.5680 ho        1 MOL      0.367619
    176 H83        -1.9120   -2.2010   -3.7890 ho        1 MOL      0.367619
@<TRIPOS>BOND
     1    1    2 1   
     2    1    4 1   
     3    1    5 1   
     4    1    6 1   
     5    2    3 2   
     6    2    7 1   
     7    7    8 1   
     8    7   15 1   
     9    8    9 1   
    10    8   11 1   
    11    8   16 1   
    12    9   10 2   
    13    9   19 1   
    14   11   12 1   
    15   11   17 1   
    16   11   18 1   
    17   12   13 1   
    18   12   14 1   
    19   19   20 1   
    20   19   28 1   
    21   20   21 1   
    22   20   23 1   
    23   20   29 1   
    24   21   22 2   
    25   21   41 1   
    26   23   24 1   
    27   23   30 1   
    28   23   31 1   
    29   24   25 1   
    30   24   32 1   
    31   24   33 1   
    32   25   26 1   
    33   25   34 1   
    34   25   35 1   
    35   26   27 1   
    36   26   36 1   
    37   26   37 1   
    38   27   38 1   
    39   27   39 1   
    40   27   40 1   
    41   41   42 1   
    42   41   49 1   
    43   42   43 1   
    44   42   45 1   
    45   42   50 1   
    46   43   44 2   
    47   43   53 1   
    48   45   46 1   
    49   45   51 1   
    50   45   52 1   
    51   46   47 1   
    52   46   48 1   
    53   53   54 1   
    54   53   57 1   
    55   54   55 1   
    56   54   58 1   
    57   54   59 1   
    58   55   56 2   
    59   55   60 1   
    60   60   61 1   
    61   60   68 1   
    62   61   62 1   
    63   61   64 1   
    64   61   69 1   
    65   62   63 2   
    66   62   74 1   
    67   64   65 1   
    68   64   70 1   
    69   64   71 1   
    70   65   66 1   
    71   65   67 2   
    72   66   72 1   
    73   66   73 1   
    74   74   75 1   
    75   74   78 1   
    76   75   76 1   
    77   75   79 1   
    78   75   80 1   
    79   76   77 2   
    80   76   81 1   
    81   81   82 1   
    82   81   93 1   
    83   82   83 1   
    84   82   85 1   
    85   82   94 1   
    86   83   84 2   
    87   83  102 1   
    88   85   86 1   
    89   85   95 1   
    90   85   96 1   
    91   86   87 ar  
    92   86   88 ar  
    93   87   89 ar  
    94   87   97 1   
    95   88   90 ar  
    96   88   98 1   
    97   89   91 ar  
    98   89   99 1   
    99   90   91 ar  
   100   90  100 1   
   101   91   92 1   
   102   92  101 1   
   103  102  103 1   
   104  102  110 1   
   105  103  104 1   
   106  103  106 1   
   107  103  111 1   
   108  104  105 2   
   109  104  121 1   
   110  106  107 1   
   111  106  108 1   
   112  106  112 1   
   113  107  109 1   
   114  107  113 1   
   115  107  114 1   
   116  108  115 1   
   117  108  116 1   
   118  108  117 1   
   119  109  118 1   
   120  109  119 1   
   121  109  120 1   
   122  121  122 1   
   123  121  127 1   
   124  122  123 1   
   125  122  125 1   
   126  122  128 1   
   127  123  124 2   
   128  123  132 1   
   129  125  126 1   
   130  125  129 1   
   131  125  130 1   
   132  126  131 1   
   133  132  133 1   
   134  132  137 1   
   135  133  134 1   
   136  133  136 1   
   137  133  138 1   
   138  134  135 2   
   139  134  142 1   
   140  136  139 1   
   141  136  140 1   
   142  136  141 1   
   143  142  143 1   
   144  142  147 1   
   145  143  144 1   
   146  143  146 1   
   147  143  148 1   
   148  144  145 2   
   149  144  152 1   
   150  146  149 1   
   151  146  150 1   
   152  146  151 1   
   153  152  153 1   
   154  152  161 1   
   155  153  154 1   
   156  153  156 1   
   157  153  162 1   
   158  154  155 2   
   159  154  167 1   
   160  156  157 1   
   161  156  163 1   
   162  156  164 1   
   163  157  158 1   
   164  157  165 1   
   165  157  166 1   
   166  158  159 1   
   167  158  160 1   
   168  167  168 1   
   169  167  172 1   
   170  168  169 1   
   171  168  170 1   
   172  168  171 1   
   173  174  175 1   
   174  174  176 1   
@<TRIPOS>SUBSTRUCTURE
     1 MOL         1 TEMP              0 ****  ****    0 ROOT
