@<TRIPOS>MOLECULE
MOL
  189   185     1     0     0
SMALL
resp


@<TRIPOS>ATOM
      1 C1          0.5580   -3.0950    6.2430 c3        1 MOL     -0.471628
      2 C2          0.6630   -2.9040    4.7150 c         1 MOL      0.691140
      3 O1          0.4690   -1.8150    4.2220 o         1 MOL     -0.546207
      4 H1          1.2270   -3.8970    6.5560 hc        1 MOL      0.124793
      5 H2          0.8410   -2.1700    6.7460 hc        1 MOL      0.124793
      6 H3         -0.4670   -3.3540    6.5080 hc        1 MOL      0.124793
      7 N1          1.1430   -3.9210    3.9760 n         1 MOL     -0.592829
      8 C3          1.7040   -3.6950    2.6640 c3        1 MOL      0.220997
      9 C4          1.6130   -4.8350    1.6650 c         1 MOL      0.524419
     10 O2          1.6840   -5.9980    2.0310 o         1 MOL     -0.609109
     11 C5          3.1470   -3.2110    2.8290 c3        1 MOL     -0.114796
     12 C6          3.9900   -2.9500    1.5120 c         1 MOL      0.530046
     13 O3          3.7300   -2.0290    0.7280 o         1 MOL     -0.567183
     14 O4          4.9380   -3.6880    1.3840 o         1 MOL     -0.567183
     15 H4          1.3940   -4.7450    4.5150 hn        1 MOL      0.306243
     16 H5          1.1350   -2.8850    2.2200 h1        1 MOL      0.013297
     17 H6          3.7530   -3.9180    3.3920 hc        1 MOL     -0.000149
     18 H7          3.1050   -2.3090    3.4360 hc        1 MOL     -0.000149
     19 N2          1.5220   -4.6400    0.3500 n         1 MOL     -0.045137
     20 C7          1.4870   -5.6750   -0.7590 c3        1 MOL     -0.194148
     21 C8          2.4910   -5.3690   -1.8590 c         1 MOL      0.433004
     22 O5          2.5580   -6.1230   -2.8400 o         1 MOL     -0.579854
     23 C9          0.0650   -5.8530   -1.3370 c3        1 MOL      0.192873
     24 C10        -0.5060   -4.5260   -2.0470 c3        1 MOL      0.009257
     25 C11        -0.9140   -6.3280   -0.2560 c3        1 MOL     -0.277046
     26 C12        -1.6450   -4.7700   -2.9820 c3        1 MOL     -0.363588
     27 H8          1.4990   -3.6840    0.0290 hn        1 MOL     -0.144451
     28 H9          1.7220   -6.6180   -0.2800 h1        1 MOL      0.122443
     29 H10         0.0970   -6.6550   -2.0790 hc        1 MOL      0.005959
     30 H11         0.2460   -3.9870   -2.6300 hc        1 MOL      0.077297
     31 H12        -0.7710   -3.7710   -1.3110 hc        1 MOL      0.077297
     32 H13        -0.9040   -5.8050    0.6960 hc        1 MOL      0.054471
     33 H14        -1.8930   -6.5580   -0.6510 hc        1 MOL      0.054471
     34 H15        -0.5370   -7.2970    0.0460 hc        1 MOL      0.054471
     35 H16        -1.2180   -5.0840   -3.9400 hc        1 MOL      0.088649
     36 H17        -2.3510   -5.4540   -2.5120 hc        1 MOL      0.088649
     37 H18        -2.1960   -3.8370   -3.0820 hc        1 MOL      0.088649
     38 N3          3.1570   -4.2910   -1.7250 n         1 MOL     -0.263198
     39 C13         4.0250   -3.8380   -2.8610 c3        1 MOL      0.169404
     40 C14         5.3260   -3.2110   -2.4930 c         1 MOL      0.183045
     41 O6          6.2920   -3.2880   -3.2320 o         1 MOL     -0.506135
     42 C15         3.2790   -2.8180   -3.7690 c3        1 MOL     -0.467755
     43 C16         2.4590   -1.7840   -2.9910 c         1 MOL      0.817136
     44 O7          2.9300   -1.2610   -1.9100 o         1 MOL     -0.691630
     45 O8          1.3690   -1.4570   -3.5140 o         1 MOL     -0.691630
     46 H19         2.9160   -3.5920   -1.0390 hn        1 MOL      0.376673
     47 H20         4.2930   -4.7110   -3.4490 h1        1 MOL      0.090086
     48 H21         2.7170   -3.5050   -4.3920 hc        1 MOL      0.123002
     49 H22         4.0140   -2.2400   -4.3280 hc        1 MOL      0.123002
     50 N4          5.4720   -2.6300   -1.2310 n         1 MOL      0.331488
     51 C17         6.7560   -2.1680   -0.7760 c3        1 MOL     -0.204680
     52 C18         7.1800   -0.8800   -1.4580 c         1 MOL      0.492002
     53 O9          8.3510   -0.8210   -1.8280 o         1 MOL     -0.584933
     54 H23         4.6710   -2.6790   -0.6240 hn        1 MOL     -0.331074
     55 H24         7.4960   -2.9150   -1.0410 h1        1 MOL      0.071044
     56 H25         6.6230   -2.0320    0.2930 h1        1 MOL      0.071044
     57 N5          6.2450    0.0980   -1.6950 n         1 MOL     -0.224429
     58 C19         6.5090    1.3950   -2.3590 c3        1 MOL     -0.039067
     59 C20         6.6800    2.5870   -1.3590 c         1 MOL      0.325848
     60 O10         6.6320    3.7420   -1.7600 o         1 MOL     -0.492639
     61 C21         5.2670    1.8610   -3.1740 c3        1 MOL     -0.236159
     62 C22         3.8800    1.8590   -2.4760 c         1 MOL      0.690876
     63 O11         3.7580    1.3950   -1.3310 o         1 MOL     -0.709508
     64 O12         2.8730    2.3280   -3.0650 o         1 MOL     -0.709508
     65 H26         5.2700   -0.0980   -1.5160 hn        1 MOL      0.231461
     66 H27         7.3740    1.4180   -3.0180 h1        1 MOL      0.107369
     67 H28         5.1890    1.1570   -3.9950 hc        1 MOL      0.078160
     68 H29         5.3920    2.8550   -3.6200 hc        1 MOL      0.078160
     69 N6          6.7430    2.3130   -0.0450 n         1 MOL     -0.103133
     70 C23         7.2000    3.3350    0.9230 c3        1 MOL     -0.263264
     71 C24         6.0530    4.2410    1.4450 c         1 MOL      0.616583
     72 O13         6.3970    5.2490    2.0160 o         1 MOL     -0.575978
     73 H30         6.6910    1.3520    0.2540 hn        1 MOL      0.157665
     74 H31         7.9090    4.0370    0.4770 h1        1 MOL      0.105591
     75 H32         7.6910    2.8070    1.7340 h1        1 MOL      0.105591
     76 N7          4.7870    3.8710    1.2210 n         1 MOL     -0.378475
     77 C25         3.5280    4.5080    1.6190 c3        1 MOL     -0.008631
     78 C26         2.2840    3.5180    1.6320 c         1 MOL      0.627950
     79 O14         2.2960    2.5930    0.8600 o         1 MOL     -0.487786
     80 C27         3.2330    5.8360    0.8050 c3        1 MOL     -0.131870
     81 C28         3.2670    5.6990   -0.7480 c3        1 MOL     -0.011329
     82 C29         2.8290    7.0420   -1.4520 c         1 MOL      0.632461
     83 N8          2.7590    7.0200   -2.7110 n         1 MOL     -0.757682
     84 O15         2.6230    8.0530   -0.8240 o         1 MOL     -0.600219
     85 H33         4.6810    3.0080    0.7070 hn        1 MOL      0.235578
     86 H34         3.7010    4.8370    2.6380 h1        1 MOL      0.024610
     87 H35         3.9840    6.5900    1.0380 hc        1 MOL      0.057423
     88 H36         2.2750    6.2180    1.1690 hc        1 MOL      0.057423
     89 H37         2.5400    4.9210   -0.9680 hc        1 MOL      0.046338
     90 H38         4.2200    5.5120   -1.2540 hc        1 MOL      0.046338
     91 H39         2.8750    6.1340   -3.1910 hn        1 MOL      0.349277
     92 H40         2.4220    7.8180   -3.2300 hn        1 MOL      0.349277
     93 N9          1.3230    3.7170    2.5430 n         1 MOL     -0.684319
     94 C30         0.0910    2.8460    2.7050 c3        1 MOL      0.111386
     95 C31        -1.0250    3.2910    1.6880 c         1 MOL      0.626934
     96 O16        -1.5980    4.3530    1.8840 o         1 MOL     -0.592645
     97 C32        -0.2630    2.5940    4.1910 c3        1 MOL      0.252341
     98 C33        -1.1460    3.7320    4.7660 c3        1 MOL     -0.313497
     99 C34        -0.9830    1.2250    4.4650 c3        1 MOL     -0.313497
    100 H41         1.4010    4.6000    3.0220 hn        1 MOL      0.349365
    101 H42         0.3380    1.8400    2.3550 h1        1 MOL      0.012502
    102 H43         0.6040    2.5840    4.8540 hc        1 MOL     -0.022422
    103 H44        -0.6860    4.7180    4.6990 hc        1 MOL      0.067117
    104 H45        -2.1180    3.7570    4.2570 hc        1 MOL      0.067117
    105 H46        -1.2860    3.5450    5.8340 hc        1 MOL      0.067117
    106 H47        -0.4120    0.4380    3.9930 hc        1 MOL      0.067117
    107 H48        -1.2710    1.1110    5.5160 hc        1 MOL      0.067117
    108 H49        -1.8980    1.2650    3.8750 hc        1 MOL      0.067117
    109 N10        -1.3770    2.3970    0.7720 n         1 MOL     -0.177440
    110 C35        -2.5390    2.5000   -0.0880 c3        1 MOL      0.028313
    111 C36        -3.8000    2.3410    0.7050 c         1 MOL      0.165922
    112 O17        -3.8690    1.6850    1.7570 o         1 MOL     -0.389991
    113 C37        -2.4160    1.4780   -1.2190 c3        1 MOL     -0.167781
    114 C38        -3.5150    1.5070   -2.1980 c         1 MOL      0.694034
    115 N11        -3.4210    2.4000   -3.1650 n         1 MOL     -0.783495
    116 O18        -4.4850    0.7110   -2.0310 o         1 MOL     -0.572028
    117 H50        -0.9480    1.4840    0.8760 hn        1 MOL     -0.066987
    118 H51        -2.4510    3.5030   -0.5110 h1        1 MOL      0.033010
    119 H52        -2.3700    0.5140   -0.7210 hc        1 MOL      0.100351
    120 H53        -1.4720    1.5750   -1.7580 hc        1 MOL      0.100351
    121 H54        -2.6250    3.0130   -3.1100 hn        1 MOL      0.367663
    122 H55        -4.1610    2.4720   -3.8420 hn        1 MOL      0.367663
    123 N12        -4.9140    2.7480    0.1260 n         1 MOL     -0.032023
    124 C39        -6.2750    2.6660    0.6170 c3        1 MOL      0.056791
    125 C40        -6.8840    1.2110    0.8620 c         1 MOL      0.390810
    126 O19        -7.6420    0.8950    1.7450 o         1 MOL     -0.569370
    127 C41        -7.2070    3.4370   -0.3180 c3        1 MOL     -0.233502
    128 C42        -7.3380    2.9340   -1.7530 ca        1 MOL      0.260734
    129 C43        -8.1090    1.7870   -2.0820 ca        1 MOL     -0.402962
    130 C44        -6.8540    3.6490   -2.8600 ca        1 MOL     -0.402962
    131 C45        -8.3580    1.4560   -3.4000 ca        1 MOL     -0.040151
    132 C46        -7.0050    3.3100   -4.1990 ca        1 MOL     -0.040151
    133 C47        -7.9110    2.2720   -4.5140 ca        1 MOL      0.159396
    134 O20        -8.2220    1.9260   -5.7860 oh        1 MOL     -0.489853
    135 H56        -4.8580    3.3490   -0.6840 hn        1 MOL      0.108560
    136 H57        -6.3320    3.2280    1.5500 h1        1 MOL      0.039518
    137 H58        -6.8500    4.4700   -0.3280 hc        1 MOL      0.073297
    138 H59        -8.1850    3.3920    0.1630 hc        1 MOL      0.073297
    139 H60        -8.5280    1.2870   -1.2290 ha        1 MOL      0.155638
    140 H61        -6.2970    4.5390   -2.5970 ha        1 MOL      0.155638
    141 H62        -8.9770    0.5980   -3.6030 ha        1 MOL      0.097850
    142 H63        -6.7990    3.9910   -5.0030 ha        1 MOL      0.097850
    143 H64        -8.9980    1.3750   -5.8280 ho        1 MOL      0.399325
    144 N13        -6.4110    0.2160    0.0330 n         1 MOL      0.109469
    145 C48        -6.7590   -1.2170    0.2100 c3        1 MOL     -0.120528
    146 C49        -5.8980   -1.7910    1.2480 c         1 MOL      0.543418
    147 O21        -6.3980   -2.5430    2.1490 o         1 MOL     -0.589701
    148 C50        -6.6860   -2.0320   -1.0890 c3        1 MOL     -0.156242
    149 C51        -5.2780   -2.5490   -1.4230 c3        1 MOL     -0.043386
    150 C52        -5.4570   -3.4580   -2.6160 c         1 MOL      0.661640
    151 O22        -5.7210   -3.0290   -3.7640 o         1 MOL     -0.730905
    152 O23        -5.5340   -4.7170   -2.4700 o         1 MOL     -0.730905
    153 H65        -5.8470    0.5060   -0.7510 hn        1 MOL      0.258095
    154 H66        -7.7540   -1.2420    0.6530 h1        1 MOL      0.042957
    155 H67        -7.0300   -1.3940   -1.9030 hc        1 MOL      0.058348
    156 H68        -7.2910   -2.9010   -0.8370 hc        1 MOL      0.058348
    157 H69        -4.8450   -3.2240   -0.6830 hc        1 MOL      0.007492
    158 H70        -4.6260   -1.7440   -1.7610 hc        1 MOL      0.007492
    159 N14        -4.6070   -1.4470    1.3760 n         1 MOL     -0.063401
    160 C53        -3.6310   -1.9190    2.4590 c3        1 MOL     -0.308941
    161 C54        -4.0230   -1.3090    3.8450 c         1 MOL      0.456373
    162 O24        -3.7380   -1.9760    4.8270 o         1 MOL     -0.556233
    163 C55        -2.2170   -1.4450    2.0740 c3        1 MOL     -0.004672
    164 C56        -1.6820   -1.9600    0.8220 c3        1 MOL     -0.056652
    165 C57        -0.3200   -1.3440    0.5280 c         1 MOL      0.611275
    166 O25        -0.1240   -0.1620    0.8940 o         1 MOL     -0.621293
    167 O26         0.6260   -1.9420   -0.0150 o         1 MOL     -0.621293
    168 H71        -4.2100   -0.7870    0.7210 hn        1 MOL     -0.037857
    169 H72        -3.6740   -3.0100    2.5530 h1        1 MOL      0.152290
    170 H73        -1.5530   -1.9050    2.7970 hc        1 MOL      0.123591
    171 H74        -2.2180   -0.3570    2.1270 hc        1 MOL      0.123591
    172 H75        -2.2840   -1.8550   -0.0880 hc        1 MOL      0.039327
    173 H76        -1.6460   -3.0250    1.0210 hc        1 MOL      0.039327
    174 N15        -4.7180   -0.2160    3.8870 n         1 MOL     -0.106400
    175 C58        -4.8840    0.4240    5.2410 c3        1 MOL     -0.063740
    176 H77        -4.3420   -0.1570    5.9870 h1        1 MOL      0.044408
    177 H78        -4.4870    1.4390    5.2150 h1        1 MOL      0.044408
    178 H79        -5.9410    0.4530    5.5040 h1        1 MOL      0.044408
    179 H80        -5.0190    0.2630    3.0460 hn        1 MOL      0.124766
    180 Ca1         2.3390    0.0580    0.2860 Ca        1 MOL      1.697912
    181 O27         4.9580    0.1920    1.3770 oh        1 MOL     -0.838964
    182 H81         5.5760    0.3040    2.1000 ho        1 MOL      0.409699
    183 H82         4.9690   -0.7470    1.2000 ho        1 MOL      0.409699
    184 O28         2.2170    0.0200    2.9650 oh        1 MOL     -0.838964
    185 H83         1.4020   -0.4120    3.2420 ho        1 MOL      0.409699
    186 H84         2.8250   -0.1180    3.6860 ho        1 MOL      0.409699
    187 O29         0.8860    1.1860   -1.9920 oh        1 MOL     -0.838964
    188 H85         1.5150    1.8710   -2.2140 ho        1 MOL      0.409699
    189 H86         1.0950    0.4630   -2.5810 ho        1 MOL      0.409699
@<TRIPOS>BOND
     1    1    2 1   
     2    1    4 1   
     3    1    5 1   
     4    1    6 1   
     5    2    3 2   
     6    2    7 1   
     7    7    8 1   
     8    7   15 1   
     9    8    9 1   
    10    8   11 1   
    11    8   16 1   
    12    9   10 2   
    13    9   19 1   
    14   11   12 1   
    15   11   17 1   
    16   11   18 1   
    17   12   13 1   
    18   12   14 1   
    19   19   20 1   
    20   19   27 1   
    21   20   21 1   
    22   20   23 1   
    23   20   28 1   
    24   21   22 2   
    25   21   38 1   
    26   23   24 1   
    27   23   25 1   
    28   23   29 1   
    29   24   26 1   
    30   24   30 1   
    31   24   31 1   
    32   25   32 1   
    33   25   33 1   
    34   25   34 1   
    35   26   35 1   
    36   26   36 1   
    37   26   37 1   
    38   38   39 1   
    39   38   46 1   
    40   39   40 1   
    41   39   42 1   
    42   39   47 1   
    43   40   41 2   
    44   40   50 1   
    45   42   43 1   
    46   42   48 1   
    47   42   49 1   
    48   43   44 1   
    49   43   45 1   
    50   50   51 1   
    51   50   54 1   
    52   51   52 1   
    53   51   55 1   
    54   51   56 1   
    55   52   53 2   
    56   52   57 1   
    57   57   58 1   
    58   57   65 1   
    59   58   59 1   
    60   58   61 1   
    61   58   66 1   
    62   59   60 2   
    63   59   69 1   
    64   61   62 1   
    65   61   67 1   
    66   61   68 1   
    67   62   63 1   
    68   62   64 1   
    69   69   70 1   
    70   69   73 1   
    71   70   71 1   
    72   70   74 1   
    73   70   75 1   
    74   71   72 2   
    75   71   76 1   
    76   76   77 1   
    77   76   85 1   
    78   77   78 1   
    79   77   80 1   
    80   77   86 1   
    81   78   79 2   
    82   78   93 1   
    83   80   81 1   
    84   80   87 1   
    85   80   88 1   
    86   81   82 1   
    87   81   89 1   
    88   81   90 1   
    89   82   83 1   
    90   82   84 2   
    91   83   91 1   
    92   83   92 1   
    93   93   94 1   
    94   93  100 1   
    95   94   95 1   
    96   94   97 1   
    97   94  101 1   
    98   95   96 2   
    99   95  109 1   
   100   97   98 1   
   101   97   99 1   
   102   97  102 1   
   103   98  103 1   
   104   98  104 1   
   105   98  105 1   
   106   99  106 1   
   107   99  107 1   
   108   99  108 1   
   109  109  110 1   
   110  109  117 1   
   111  110  111 1   
   112  110  113 1   
   113  110  118 1   
   114  111  112 2   
   115  111  123 1   
   116  113  114 1   
   117  113  119 1   
   118  113  120 1   
   119  114  115 1   
   120  114  116 2   
   121  115  121 1   
   122  115  122 1   
   123  123  124 1   
   124  123  135 1   
   125  124  125 1   
   126  124  127 1   
   127  124  136 1   
   128  125  126 2   
   129  125  144 1   
   130  127  128 1   
   131  127  137 1   
   132  127  138 1   
   133  128  129 ar  
   134  128  130 ar  
   135  129  131 ar  
   136  129  139 1   
   137  130  132 ar  
   138  130  140 1   
   139  131  133 ar  
   140  131  141 1   
   141  132  133 ar  
   142  132  142 1   
   143  133  134 1   
   144  134  143 1   
   145  144  145 1   
   146  144  153 1   
   147  145  146 1   
   148  145  148 1   
   149  145  154 1   
   150  146  147 2   
   151  146  159 1   
   152  148  149 1   
   153  148  155 1   
   154  148  156 1   
   155  149  150 1   
   156  149  157 1   
   157  149  158 1   
   158  150  151 1   
   159  150  152 1   
   160  159  160 1   
   161  159  168 1   
   162  160  161 1   
   163  160  163 1   
   164  160  169 1   
   165  161  162 2   
   166  161  174 1   
   167  163  164 1   
   168  163  170 1   
   169  163  171 1   
   170  164  165 1   
   171  164  172 1   
   172  164  173 1   
   173  165  166 1   
   174  165  167 1   
   175  174  175 1   
   176  174  179 1   
   177  175  176 1   
   178  175  177 1   
   179  175  178 1   
   180  181  182 1   
   181  181  183 1   
   182  184  185 1   
   183  184  186 1   
   184  187  188 1   
   185  187  189 1   
@<TRIPOS>SUBSTRUCTURE
     1 MOL         1 TEMP              0 ****  ****    0 ROOT
