@<TRIPOS>MOLECULE
MOL
  179   176     1     0     0
SMALL
resp


@<TRIPOS>ATOM
      1 C1          2.5010    2.4430    5.0460 c3        1 MOL     -0.415396
      2 C2          1.7490    2.3050    3.6650 c         1 MOL      0.726580
      3 O1          2.4400    2.4920    2.6750 o         1 MOL     -0.598550
      4 H1          1.9150    3.0720    5.7160 hc        1 MOL      0.105842
      5 H2          2.6260    1.4570    5.4920 hc        1 MOL      0.105842
      6 H3          3.4780    2.8970    4.8840 hc        1 MOL      0.105842
      7 N1          0.4360    2.1440    3.6880 n         1 MOL     -0.491934
      8 C3         -0.4320    2.1410    2.4930 c3        1 MOL      0.043756
      9 C4         -0.6560    3.5560    1.8070 c         1 MOL      0.443184
     10 O2         -1.3540    4.3550    2.4060 o         1 MOL     -0.511931
     11 C5         -1.7570    1.3980    2.9390 c3        1 MOL     -0.246946
     12 C6         -2.8210    1.3540    1.8300 c         1 MOL      0.723190
     13 O3         -2.5810    1.6390    0.6040 o         1 MOL     -0.707851
     14 O4         -3.9730    0.9190    2.1670 o         1 MOL     -0.707851
     15 H4         -0.0830    2.0560    4.5440 hn        1 MOL      0.297858
     16 H5          0.1330    1.5130    1.8110 h1        1 MOL      0.047538
     17 H6         -2.1780    1.8830    3.8180 hc        1 MOL      0.095263
     18 H7         -1.4400    0.4070    3.2380 hc        1 MOL      0.095263
     19 N2         -0.0460    3.8660    0.6570 n         1 MOL     -0.320714
     20 C7          0.0540    5.2950    0.1660 c3        1 MOL     -0.040265
     21 C8         -1.1600    5.7960   -0.5290 c         1 MOL      0.495744
     22 O5         -1.1950    7.0190   -0.7770 o         1 MOL     -0.581240
     23 C9          1.4020    5.3780   -0.6390 c3        1 MOL     -0.070249
     24 C10         2.6630    5.3450    0.1960 c3        1 MOL      0.122642
     25 C11         3.9770    5.4340   -0.6360 c3        1 MOL     -0.088002
     26 C12         5.0700    6.0500    0.1840 c3        1 MOL      0.036221
     27 N3          6.2620    6.2890   -0.6140 n4        1 MOL     -0.268871
     28 H8          0.5200    3.1600    0.2250 hn        1 MOL      0.380200
     29 H9         -0.0110    5.9570    1.0260 h1        1 MOL      0.101996
     30 H10         1.4180    6.2990   -1.2200 hc        1 MOL      0.029879
     31 H11         1.4720    4.5380   -1.3390 hc        1 MOL      0.029879
     32 H12         2.6740    4.4560    0.8210 hc        1 MOL      0.000459
     33 H13         2.5500    6.2580    0.7730 hc        1 MOL      0.000459
     34 H14         3.8640    6.0750   -1.5050 hc        1 MOL      0.030205
     35 H15         4.3620    4.4110   -0.7450 hc        1 MOL      0.030205
     36 H16         5.2450    5.4140    1.0500 hx        1 MOL      0.078899
     37 H17         4.6750    7.0310    0.4780 hx        1 MOL      0.078899
     38 H18         6.6640    5.4420   -0.9880 hn        1 MOL      0.304312
     39 H19         6.1940    6.9720   -1.3660 hn        1 MOL      0.304312
     40 H20         6.9890    6.6890   -0.0530 hn        1 MOL      0.304312
     41 N4         -2.0890    4.9400   -0.8860 n         1 MOL     -0.179360
     42 C13        -3.3300    5.3060   -1.6280 c3        1 MOL     -0.165549
     43 C14        -4.6230    4.8250   -0.7980 c         1 MOL      0.452995
     44 O6         -5.7090    5.0260   -1.3230 o         1 MOL     -0.520430
     45 C15        -3.3690    4.7490   -3.0420 c3        1 MOL      0.073742
     46 C16        -3.1900    3.2210   -3.2820 c         1 MOL      0.570463
     47 O7         -2.6670    2.5120   -2.4450 o         1 MOL     -0.682695
     48 O8         -3.4100    2.7920   -4.4570 o         1 MOL     -0.682695
     49 H21        -1.9420    3.9540   -0.7550 hn        1 MOL      0.058245
     50 H22        -3.3600    6.3930   -1.7040 h1        1 MOL      0.127016
     51 H23        -2.5670    5.2970   -3.5530 hc        1 MOL      0.014383
     52 H24        -4.1560    5.0890   -3.7000 hc        1 MOL      0.014383
     53 N5         -4.3890    4.1900    0.3120 n         1 MOL     -0.164922
     54 C17        -5.4430    3.7610    1.2020 c3        1 MOL     -0.245732
     55 C18        -6.2670    2.5580    0.6150 c         1 MOL      0.525484
     56 O9         -7.4530    2.5250    0.8450 o         1 MOL     -0.551104
     57 H25        -3.4590    3.9850    0.6440 hn        1 MOL      0.181605
     58 H26        -6.0130    4.6660    1.4130 h1        1 MOL      0.128598
     59 H27        -4.8640    3.4320    2.0670 h1        1 MOL      0.128598
     60 N6         -5.6270    1.7280   -0.2480 n         1 MOL     -0.085407
     61 C19        -6.4570    0.7020   -0.8240 c3        1 MOL     -0.117529
     62 C20        -6.6490   -0.5390    0.1030 c         1 MOL      0.283559
     63 O10        -7.2910   -1.4690   -0.3940 o         1 MOL     -0.463706
     64 C21        -5.7880    0.3080   -2.1780 c3        1 MOL     -0.246350
     65 C22        -4.6950   -0.8000   -2.1690 c         1 MOL      0.435268
     66 N7         -4.9070   -1.7670   -2.9920 n         1 MOL     -0.514986
     67 O11        -3.6640   -0.7790   -1.5320 o         1 MOL     -0.571936
     68 H28        -4.6520    1.8790   -0.4640 hn        1 MOL      0.096579
     69 H29        -7.4250    1.1540   -1.0410 h1        1 MOL      0.160351
     70 H30        -5.2620    1.2080   -2.4930 hc        1 MOL      0.123822
     71 H31        -6.5550    0.0720   -2.9030 hc        1 MOL      0.123822
     72 H32        -5.7640   -1.7080   -3.5240 hn        1 MOL      0.308920
     73 H33        -4.2220   -2.5000   -3.1150 hn        1 MOL      0.308920
     74 N8         -6.1100   -0.5570    1.3030 n         1 MOL     -0.081772
     75 C23        -6.1220   -1.7430    2.2270 c3        1 MOL     -0.384407
     76 C24        -4.8820   -2.6430    2.1100 c         1 MOL      0.862206
     77 O12        -4.9350   -3.7340    2.6800 o         1 MOL     -0.600317
     78 H34        -5.5400    0.2230    1.5980 hn        1 MOL      0.230779
     79 H35        -6.9520   -2.4350    2.1020 h1        1 MOL      0.147532
     80 H36        -6.0480   -1.3410    3.2440 h1        1 MOL      0.147532
     81 N9         -3.8350   -2.1680    1.4380 n         1 MOL     -1.017887
     82 C25        -2.7720   -3.1350    1.0500 c3        1 MOL      0.718657
     83 C26        -1.4150   -2.4670    0.9990 c         1 MOL      0.382971
     84 O13        -1.3210   -1.5150    0.2860 o         1 MOL     -0.573441
     85 C27        -2.9050   -4.0410   -0.1530 c3        1 MOL      0.065962
     86 C28        -4.1150   -4.9390   -0.2580 ca        1 MOL     -0.044841
     87 C29        -5.2330   -4.4460   -0.8760 ca        1 MOL     -0.076805
     88 C30        -4.0420   -6.2950    0.1370 ca        1 MOL     -0.076805
     89 C31        -6.3030   -5.2660   -1.1030 ca        1 MOL     -0.295073
     90 C32        -5.0830   -7.1540   -0.2120 ca        1 MOL     -0.295073
     91 C33        -6.2930   -6.6570   -0.8460 ca        1 MOL      0.318122
     92 O14        -7.4340   -7.4150   -1.0330 oh        1 MOL     -0.448382
     93 H37        -3.9930   -1.3170    0.9160 hn        1 MOL      0.569810
     94 H38        -2.7950   -3.9230    1.8000 h1        1 MOL     -0.107163
     95 H39        -2.0490   -4.7140   -0.1930 hc        1 MOL     -0.058933
     96 H40        -2.8040   -3.3860   -1.0270 hc        1 MOL     -0.058933
     97 H41        -5.2090   -3.4290   -1.2360 ha        1 MOL      0.103343
     98 H42        -3.1910   -6.7210    0.6490 ha        1 MOL      0.103343
     99 H43        -7.2070   -4.8530   -1.5270 ha        1 MOL      0.147975
    100 H44        -5.0160   -8.1850    0.0960 ha        1 MOL      0.147975
    101 H45        -7.2180   -8.3180   -0.7940 ho        1 MOL      0.345416
    102 N10        -0.4390   -3.1060    1.6460 n         1 MOL     -0.529172
    103 C34         0.9090   -2.7080    1.7410 c3        1 MOL      0.078253
    104 C35         1.7610   -3.6620    0.8800 c         1 MOL      0.411408
    105 O15         1.8920   -4.8680    1.1660 o         1 MOL     -0.531916
    106 C36         1.4770   -2.7350    3.1890 c3        1 MOL      0.011139
    107 C37         0.6360   -1.7580    4.1420 c3        1 MOL      0.352017
    108 C38         2.9120   -2.2900    3.1390 c3        1 MOL     -0.234059
    109 C39         0.9690   -2.0300    5.6380 c3        1 MOL     -0.317880
    110 H46        -0.7960   -3.8800    2.1880 hn        1 MOL      0.299213
    111 H47         0.9860   -1.7040    1.3320 h1        1 MOL      0.157839
    112 H48         1.2530   -3.7130    3.6150 hc        1 MOL      0.045209
    113 H49        -0.4430   -1.9160    4.0260 hc        1 MOL     -0.092987
    114 H50         0.7910   -0.7130    3.8990 hc        1 MOL     -0.092987
    115 H51         3.0880   -1.2660    2.8140 hc        1 MOL      0.036363
    116 H52         3.4010   -2.2350    4.1100 hc        1 MOL      0.036363
    117 H53         3.5580   -2.8650    2.4800 hc        1 MOL      0.036363
    118 H54         0.3940   -1.4370    6.3560 hc        1 MOL      0.070861
    119 H55         0.7730   -3.0930    5.7500 hc        1 MOL      0.070861
    120 H56         2.0140   -1.7860    5.8280 hc        1 MOL      0.070861
    121 N11         2.4230   -3.1210   -0.1310 n         1 MOL     -0.172520
    122 C40         3.3810   -3.8070   -1.0760 c3        1 MOL      0.015634
    123 C41         4.8210   -3.6080   -0.8060 c         1 MOL      0.426827
    124 O16         5.1450   -2.7470   -0.0140 o         1 MOL     -0.348374
    125 C42         3.0420   -3.3850   -2.5220 c3        1 MOL      0.007557
    126 O17         3.2050   -1.9350   -2.5760 oh        1 MOL     -0.594764
    127 H57         2.1650   -2.1590   -0.3270 hn        1 MOL      0.209386
    128 H58         3.1600   -4.8690   -0.9430 h1        1 MOL      0.056328
    129 H59         2.0600   -3.7970   -2.7490 h1        1 MOL      0.060733
    130 H60         3.7100   -3.8180   -3.2710 h1        1 MOL      0.060733
    131 H61         2.4670   -1.5530   -2.0870 ho        1 MOL      0.429700
    132 N12         5.7220   -4.4210   -1.3900 n         1 MOL     -0.416903
    133 C43         7.2130   -4.2230   -1.1630 c3        1 MOL      0.103955
    134 C44         7.6820   -2.7670   -1.1300 c         1 MOL      0.457430
    135 O18         8.3370   -2.3990   -0.1590 o         1 MOL     -0.517864
    136 C45         8.0000   -4.9480   -2.2510 c3        1 MOL     -0.223321
    137 H62         5.4590   -5.1190   -2.0800 hn        1 MOL      0.264170
    138 H63         7.3340   -4.7030   -0.1950 h1        1 MOL      0.073374
    139 H64         7.9040   -4.3700   -3.1630 hc        1 MOL      0.072461
    140 H65         9.0600   -5.0320   -2.0010 hc        1 MOL      0.072461
    141 H66         7.6360   -5.9770   -2.3010 hc        1 MOL      0.072461
    142 N13         7.3150   -1.9920   -2.1730 n         1 MOL     -0.296219
    143 C46         7.7790   -0.6460   -2.3300 c3        1 MOL      0.011245
    144 C47         7.1780    0.3140   -1.2900 c         1 MOL      0.500030
    145 O19         7.9160    1.1220   -0.8440 o         1 MOL     -0.526853
    146 C48         7.4810   -0.3850   -3.8210 c3        1 MOL     -0.281871
    147 H67         6.5730   -2.3140   -2.7730 hn        1 MOL      0.264181
    148 H68         8.8640   -0.6770   -2.3510 h1        1 MOL      0.111420
    149 H69         7.7200   -1.1290   -4.5680 hc        1 MOL      0.076300
    150 H70         6.4490   -0.0880   -4.0210 hc        1 MOL      0.076300
    151 H71         8.1070    0.4920   -4.0270 hc        1 MOL      0.076300
    152 N14         5.9500    0.1110   -0.8860 n         1 MOL     -0.347602
    153 C49         5.3210    0.9150    0.2060 c3        1 MOL     -0.227090
    154 C50         6.0160    0.6710    1.5960 c         1 MOL      0.423506
    155 O20         6.3600    1.5870    2.2640 o         1 MOL     -0.513952
    156 C51         3.8550    0.4990    0.2140 c3        1 MOL      0.190518
    157 C52         3.0750    1.1370   -0.9190 c3        1 MOL     -0.289443
    158 C53         1.5960    0.7030   -0.8100 c         1 MOL      0.884549
    159 O21         1.3710   -0.4640   -1.2460 o         1 MOL     -0.873575
    160 O22         0.6700    1.4170   -0.4150 o         1 MOL     -0.873575
    161 H72         5.3850   -0.6300   -1.2790 hn        1 MOL      0.263163
    162 H73         5.5030    1.9540   -0.0810 h1        1 MOL      0.189403
    163 H74         3.4750    0.7560    1.2080 hc        1 MOL      0.007565
    164 H75         3.7750   -0.5890    0.1270 hc        1 MOL      0.007565
    165 H76         3.5600    0.9200   -1.8660 hc        1 MOL      0.031328
    166 H77         3.0520    2.2230   -0.7540 hc        1 MOL      0.031328
    167 N15         6.3440   -0.6240    1.8700 n         1 MOL      0.021963
    168 C54         7.2640   -1.0010    2.9840 c3        1 MOL     -0.316452
    169 H78         6.8970   -0.5740    3.9180 h1        1 MOL      0.120669
    170 H79         7.3030   -2.0860    3.0720 h1        1 MOL      0.120669
    171 H80         8.2630   -0.6160    2.7760 h1        1 MOL      0.120669
    172 H81         6.0230   -1.2980    1.1890 hn        1 MOL      0.078476
    173 Ca1        -1.3440    0.3270   -1.5210 Ca        1 MOL      1.775942
    174 O23        -0.0650    0.7520   -3.8060 oh        1 MOL     -0.837131
    175 H82        -0.3610    1.2390   -4.5780 ho        1 MOL      0.421367
    176 H83         0.8670    0.9560   -3.7330 ho        1 MOL      0.421367
    177 O24        -1.1300   -1.8830   -3.0470 oh        1 MOL     -0.837131
    178 H84        -0.6420   -2.7000   -2.9250 ho        1 MOL      0.421367
    179 H85        -0.9080   -1.6010   -3.9360 ho        1 MOL      0.421367
@<TRIPOS>BOND
     1    1    2 1   
     2    1    4 1   
     3    1    5 1   
     4    1    6 1   
     5    2    3 2   
     6    2    7 1   
     7    7    8 1   
     8    7   15 1   
     9    8    9 1   
    10    8   11 1   
    11    8   16 1   
    12    9   10 2   
    13    9   19 1   
    14   11   12 1   
    15   11   17 1   
    16   11   18 1   
    17   12   13 1   
    18   12   14 1   
    19   19   20 1   
    20   19   28 1   
    21   20   21 1   
    22   20   23 1   
    23   20   29 1   
    24   21   22 2   
    25   21   41 1   
    26   23   24 1   
    27   23   30 1   
    28   23   31 1   
    29   24   25 1   
    30   24   32 1   
    31   24   33 1   
    32   25   26 1   
    33   25   34 1   
    34   25   35 1   
    35   26   27 1   
    36   26   36 1   
    37   26   37 1   
    38   27   38 1   
    39   27   39 1   
    40   27   40 1   
    41   41   42 1   
    42   41   49 1   
    43   42   43 1   
    44   42   45 1   
    45   42   50 1   
    46   43   44 2   
    47   43   53 1   
    48   45   46 1   
    49   45   51 1   
    50   45   52 1   
    51   46   47 1   
    52   46   48 1   
    53   53   54 1   
    54   53   57 1   
    55   54   55 1   
    56   54   58 1   
    57   54   59 1   
    58   55   56 2   
    59   55   60 1   
    60   60   61 1   
    61   60   68 1   
    62   61   62 1   
    63   61   64 1   
    64   61   69 1   
    65   62   63 2   
    66   62   74 1   
    67   64   65 1   
    68   64   70 1   
    69   64   71 1   
    70   65   66 1   
    71   65   67 2   
    72   66   72 1   
    73   66   73 1   
    74   74   75 1   
    75   74   78 1   
    76   75   76 1   
    77   75   79 1   
    78   75   80 1   
    79   76   77 2   
    80   76   81 1   
    81   81   82 1   
    82   81   93 1   
    83   82   83 1   
    84   82   85 1   
    85   82   94 1   
    86   83   84 2   
    87   83  102 1   
    88   85   86 1   
    89   85   95 1   
    90   85   96 1   
    91   86   87 ar  
    92   86   88 ar  
    93   87   89 ar  
    94   87   97 1   
    95   88   90 ar  
    96   88   98 1   
    97   89   91 ar  
    98   89   99 1   
    99   90   91 ar  
   100   90  100 1   
   101   91   92 1   
   102   92  101 1   
   103  102  103 1   
   104  102  110 1   
   105  103  104 1   
   106  103  106 1   
   107  103  111 1   
   108  104  105 2   
   109  104  121 1   
   110  106  107 1   
   111  106  108 1   
   112  106  112 1   
   113  107  109 1   
   114  107  113 1   
   115  107  114 1   
   116  108  115 1   
   117  108  116 1   
   118  108  117 1   
   119  109  118 1   
   120  109  119 1   
   121  109  120 1   
   122  121  122 1   
   123  121  127 1   
   124  122  123 1   
   125  122  125 1   
   126  122  128 1   
   127  123  124 2   
   128  123  132 1   
   129  125  126 1   
   130  125  129 1   
   131  125  130 1   
   132  126  131 1   
   133  132  133 1   
   134  132  137 1   
   135  133  134 1   
   136  133  136 1   
   137  133  138 1   
   138  134  135 2   
   139  134  142 1   
   140  136  139 1   
   141  136  140 1   
   142  136  141 1   
   143  142  143 1   
   144  142  147 1   
   145  143  144 1   
   146  143  146 1   
   147  143  148 1   
   148  144  145 2   
   149  144  152 1   
   150  146  149 1   
   151  146  150 1   
   152  146  151 1   
   153  152  153 1   
   154  152  161 1   
   155  153  154 1   
   156  153  156 1   
   157  153  162 1   
   158  154  155 2   
   159  154  167 1   
   160  156  157 1   
   161  156  163 1   
   162  156  164 1   
   163  157  158 1   
   164  157  165 1   
   165  157  166 1   
   166  158  159 1   
   167  158  160 1   
   168  167  168 1   
   169  167  172 1   
   170  168  169 1   
   171  168  170 1   
   172  168  171 1   
   173  174  175 1   
   174  174  176 1   
   175  177  178 1   
   176  177  179 1   
@<TRIPOS>SUBSTRUCTURE
     1 MOL         1 TEMP              0 ****  ****    0 ROOT
