@<TRIPOS>MOLECULE
MOL
  189   185     1     0     0
SMALL
resp


@<TRIPOS>ATOM
      1 C1         -0.4540    2.8860    5.9690 c3        1 MOL     -0.409070
      2 C2         -0.9130    2.6920    4.5360 c         1 MOL      0.714080
      3 O1         -0.1860    2.9880    3.6040 o         1 MOL     -0.623627
      4 H1          0.1660    3.7800    6.0340 hc        1 MOL      0.110829
      5 H2         -1.3230    2.9970    6.6180 hc        1 MOL      0.110829
      6 H3          0.1280    2.0190    6.2850 hc        1 MOL      0.110829
      7 N1         -2.1540    2.2180    4.2860 n         1 MOL     -0.640065
      8 C3         -2.5620    1.8990    2.9180 c3        1 MOL      0.237063
      9 C4         -2.8560    3.1940    2.1680 c         1 MOL      0.512665
     10 O2         -3.8400    3.8880    2.5550 o         1 MOL     -0.547654
     11 C5         -3.6360    0.8360    2.8650 c3        1 MOL     -0.377963
     12 C6         -4.0560    0.3470    1.4840 c         1 MOL      0.812045
     13 O3         -3.5140    0.7120    0.4360 o         1 MOL     -0.699009
     14 O4         -5.0640   -0.4020    1.5510 o         1 MOL     -0.699009
     15 H4         -2.7770    1.9850    5.0400 hn        1 MOL      0.342785
     16 H5         -1.6940    1.4400    2.4370 h1        1 MOL     -0.046824
     17 H6         -4.4940    1.3590    3.2870 hc        1 MOL      0.099374
     18 H7         -3.2920   -0.0570    3.3920 hc        1 MOL      0.099374
     19 N2         -2.1880    3.5880    1.0430 n         1 MOL     -0.190301
     20 C7         -2.4390    4.8570    0.3510 c3        1 MOL      0.015682
     21 C8         -3.6260    4.8180   -0.6040 c         1 MOL      0.425179
     22 O5         -4.4760    5.7490   -0.5510 o         1 MOL     -0.523443
     23 C9         -1.1720    5.4420   -0.3500 c3        1 MOL     -0.141454
     24 C10        -0.1400    5.9890    0.6550 c3        1 MOL      0.132794
     25 C11         1.0770    6.4450   -0.1420 c3        1 MOL     -0.228553
     26 C12         2.1360    6.8300    0.9190 c3        1 MOL      0.066716
     27 N3          3.4310    7.0400    0.3190 n4        1 MOL     -0.369592
     28 H8         -1.3470    3.0830    0.8140 hn        1 MOL      0.165702
     29 H9         -2.7510    5.4760    1.1880 h1        1 MOL      0.046590
     30 H10        -1.4580    6.2270   -1.0420 hc        1 MOL      0.064011
     31 H11        -0.7490    4.6490   -0.9710 hc        1 MOL      0.064011
     32 H12         0.1900    5.2480    1.3830 hc        1 MOL      0.014687
     33 H13        -0.5580    6.8320    1.2080 hc        1 MOL      0.014687
     34 H14         0.7000    7.3640   -0.6010 hc        1 MOL      0.078128
     35 H15         1.4170    5.6490   -0.8150 hc        1 MOL      0.078128
     36 H16         2.1670    5.9610    1.5820 hx        1 MOL      0.085489
     37 H17         1.7630    7.7180    1.4400 hx        1 MOL      0.085489
     38 H18         3.2830    7.7970   -0.3240 hn        1 MOL      0.330059
     39 H19         4.0950    7.2380    1.0530 hn        1 MOL      0.330059
     40 H20         3.7540    6.2420   -0.2150 hn        1 MOL      0.330059
     41 N4         -3.6480    3.7920   -1.4980 n         1 MOL     -0.303044
     42 C13        -4.8300    3.6180   -2.4420 c3        1 MOL      0.087649
     43 C14        -6.0310    2.8610   -1.8770 c         1 MOL      0.360720
     44 O6         -7.0980    2.7470   -2.4800 o         1 MOL     -0.524517
     45 C15        -4.3010    3.0170   -3.8430 c3        1 MOL     -0.336009
     46 C16        -3.0520    2.1260   -3.6990 c         1 MOL      0.736831
     47 O7         -3.1490    1.1420   -2.9030 o         1 MOL     -0.703972
     48 O8         -1.9570    2.5300   -4.1820 o         1 MOL     -0.703972
     49 H21        -3.1840    2.9560   -1.1650 hn        1 MOL      0.182304
     50 H22        -5.3020    4.5730   -2.6530 h1        1 MOL      0.108606
     51 H23        -4.1620    3.9160   -4.4490 hc        1 MOL      0.093895
     52 H24        -5.1190    2.4750   -4.3200 hc        1 MOL      0.093895
     53 N5         -5.9060    2.2400   -0.7340 n         1 MOL     -0.149528
     54 C17        -7.0400    1.6750    0.0610 c3        1 MOL     -0.140085
     55 C18        -7.4630    0.2780   -0.5110 c         1 MOL      0.512215
     56 O9         -8.6380    0.0100   -0.5300 o         1 MOL     -0.566360
     57 H25        -4.9610    2.0610   -0.4350 hn        1 MOL      0.158117
     58 H26        -7.9370    2.2990    0.1600 h1        1 MOL      0.104591
     59 H27        -6.5680    1.6480    1.0340 h1        1 MOL      0.104591
     60 N6         -6.5470   -0.5180   -1.0310 n         1 MOL     -0.088775
     61 C19        -6.8430   -1.7010   -1.7600 c3        1 MOL     -0.018089
     62 C20        -6.7910   -2.9190   -0.8290 c         1 MOL      0.427027
     63 O10        -7.0870   -4.0210   -1.2640 o         1 MOL     -0.502074
     64 C21        -5.8220   -1.8260   -2.8900 c3        1 MOL     -0.247039
     65 C22        -4.3460   -1.7090   -2.4650 c         1 MOL      0.877080
     66 O11        -4.0910   -1.6380   -1.2350 o         1 MOL     -0.756590
     67 O12        -3.4670   -1.6820   -3.3170 o         1 MOL     -0.756590
     68 H28        -5.5730   -0.2830   -0.8910 hn        1 MOL      0.091115
     69 H29        -7.8080   -1.6630   -2.2670 h1        1 MOL      0.122024
     70 H30        -5.9310   -1.0660   -3.6590 hc        1 MOL      0.074425
     71 H31        -6.0120   -2.8310   -3.2630 hc        1 MOL      0.074425
     72 N7         -6.4670   -2.7600    0.5010 n         1 MOL     -0.364700
     73 C23        -6.4240   -3.9430    1.4350 c3        1 MOL     -0.005935
     74 C24        -5.0100   -4.5480    1.5140 c         1 MOL      0.467915
     75 O13        -4.8600   -5.6090    2.1060 o         1 MOL     -0.569057
     76 H32        -6.0420   -1.8610    0.6750 hn        1 MOL      0.259021
     77 H33        -7.1680   -4.6810    1.1360 h1        1 MOL      0.081431
     78 H34        -6.7500   -3.5740    2.4020 h1        1 MOL      0.081431
     79 N8         -4.0070   -3.9220    0.8840 n         1 MOL     -0.201241
     80 C25        -2.6350   -4.4490    0.7190 c3        1 MOL     -0.235189
     81 C26        -1.5030   -3.4690    0.8240 c         1 MOL      0.658906
     82 O14        -1.6530   -2.3660    0.3080 o         1 MOL     -0.669926
     83 C27        -2.3680   -5.2280   -0.5440 c3        1 MOL      0.482416
     84 C28        -2.9570   -6.6900   -0.5630 c3        1 MOL     -0.338530
     85 O15        -2.9540   -4.5820   -1.6930 oh        1 MOL     -0.592673
     86 H35        -4.2210   -2.9670    0.6270 hn        1 MOL      0.263849
     87 H36        -2.4300   -5.1540    1.5220 h1        1 MOL      0.093323
     88 H37        -1.2870   -5.2400   -0.6870 h1        1 MOL     -0.061061
     89 H38        -2.8340   -3.6570   -1.4730 ho        1 MOL      0.346384
     90 H39        -3.9360   -6.6550   -0.0940 hc        1 MOL      0.090129
     91 H40        -2.9200   -7.0950   -1.5780 hc        1 MOL      0.090129
     92 H41        -2.3510   -7.3650    0.0430 hc        1 MOL      0.090129
     93 N9         -0.4300   -3.9070    1.5080 n         1 MOL     -0.529165
     94 C29         0.8140   -3.1280    1.7520 c3        1 MOL      0.292886
     95 C30         1.8590   -3.5570    0.6920 c         1 MOL      0.393597
     96 O16         2.1900   -4.7190    0.4640 o         1 MOL     -0.550222
     97 C31         1.2370   -3.3050    3.1960 c3        1 MOL      0.014655
     98 C32         0.1520   -2.9270    4.1760 c3        1 MOL     -0.065503
     99 C33         2.6070   -2.5630    3.5820 c3        1 MOL     -0.330789
    100 C34        -0.3220   -1.4360    4.1020 c3        1 MOL     -0.046531
    101 H42        -0.3820   -4.8360    1.9020 hn        1 MOL      0.291020
    102 H43         0.6500   -2.0590    1.6250 h1        1 MOL     -0.019477
    103 H44         1.4020   -4.3800    3.2360 hc        1 MOL      0.007160
    104 H45         0.3960   -3.0880    5.2280 hc        1 MOL      0.026216
    105 H46        -0.7250   -3.5310    3.9440 hc        1 MOL      0.026216
    106 H47         2.4710   -1.4850    3.4310 hc        1 MOL      0.080791
    107 H48         2.7360   -2.8500    4.6200 hc        1 MOL      0.080791
    108 H49         3.4130   -2.9100    2.9410 hc        1 MOL      0.080791
    109 H50        -1.0750   -1.2500    4.8630 hc        1 MOL      0.035257
    110 H51         0.4690   -0.6780    4.0860 hc        1 MOL      0.035257
    111 H52        -0.9420   -1.2970    3.2140 hc        1 MOL      0.035257
    112 N10         2.5270   -2.5310    0.1810 n         1 MOL      0.010868
    113 C35         3.6660   -2.6870   -0.7720 c3        1 MOL      0.017561
    114 C36         5.0090   -2.4670   -0.0720 c         1 MOL      0.320565
    115 O17         5.0640   -1.9310    1.0640 o         1 MOL     -0.325190
    116 C37         3.5320   -1.5990   -1.8720 c3        1 MOL      0.066843
    117 C38         2.3600   -1.9430   -2.7100 c3        1 MOL     -0.435602
    118 O18         3.1240   -0.3600   -1.2090 oh        1 MOL     -0.347544
    119 H53         2.0730   -1.6270    0.0940 hn        1 MOL      0.028609
    120 H54         3.7800   -3.7040   -1.1580 h1        1 MOL      0.075529
    121 H55         4.4560   -1.5080   -2.4510 h1        1 MOL      0.086341
    122 H56         2.1930   -0.4120   -0.9770 ho        1 MOL      0.276534
    123 H57         1.4110   -1.9640   -2.1770 hc        1 MOL      0.139825
    124 H58         2.3500   -1.1710   -3.4790 hc        1 MOL      0.139825
    125 H59         2.5480   -2.9640   -3.0520 hc        1 MOL      0.139825
    126 N11         6.1080   -2.7700   -0.7100 n         1 MOL     -0.365636
    127 C39         7.4720   -2.3250   -0.3400 c3        1 MOL     -0.025551
    128 C40         7.4440   -0.7870    0.0130 c         1 MOL      0.109831
    129 O19         8.0340   -0.3120    1.0040 o         1 MOL     -0.433222
    130 C41         8.5070   -2.5710   -1.3650 c3        1 MOL      0.477028
    131 C42         8.7160   -4.0360   -1.6990 c3        1 MOL     -0.449427
    132 O20         8.3390   -1.8170   -2.5340 oh        1 MOL     -0.630010
    133 H60         5.9290   -3.1520   -1.6310 hn        1 MOL      0.270595
    134 H61         7.8050   -2.8270    0.5690 h1        1 MOL      0.134332
    135 H62         9.4190   -2.2580   -0.8610 h1        1 MOL     -0.006530
    136 H63         9.1760   -1.6750   -2.9880 ho        1 MOL      0.324417
    137 H64         7.7650   -4.5550   -1.6820 hc        1 MOL      0.119681
    138 H65         9.2160   -4.1410   -2.6580 hc        1 MOL      0.119681
    139 H66         9.3130   -4.3740   -0.8540 hc        1 MOL      0.119681
    140 N12         6.6440   -0.0290   -0.7280 n         1 MOL      0.151529
    141 C43         6.4340    1.4320   -0.5900 c3        1 MOL      0.005560
    142 C44         5.7460    1.8060    0.7520 c         1 MOL      0.268252
    143 O21         6.2450    2.6820    1.4620 o         1 MOL     -0.509167
    144 C45         5.6380    2.0950   -1.7240 c3        1 MOL     -0.161212
    145 C46         6.0200    1.5990   -3.1280 c3        1 MOL     -0.108314
    146 C47         7.4850    1.7240   -3.4730 c3        1 MOL      0.088398
    147 C48         7.7130    1.0200   -4.7960 c3        1 MOL      0.003048
    148 N13         9.1500    0.8580   -4.9940 n4        1 MOL     -0.285027
    149 H67         6.1630   -0.4920   -1.4840 hn        1 MOL      0.084446
    150 H68         7.3850    1.9570   -0.5530 h1        1 MOL      0.046253
    151 H69         5.8120    3.1730   -1.6610 hc        1 MOL      0.088855
    152 H70         4.5720    1.9300   -1.5850 hc        1 MOL      0.088855
    153 H71         5.4810    2.2220   -3.8390 hc        1 MOL      0.049302
    154 H72         5.6680    0.5760   -3.2560 hc        1 MOL      0.049302
    155 H73         8.0400    1.1720   -2.7150 hc        1 MOL      0.005145
    156 H74         7.8370    2.7550   -3.4320 hc        1 MOL      0.005145
    157 H75         7.3300    1.6180   -5.6290 hx        1 MOL      0.084710
    158 H76         7.2310    0.0450   -4.7920 hx        1 MOL      0.084710
    159 H77         9.7030    1.6130   -4.6010 hn        1 MOL      0.274376
    160 H78         9.4920   -0.0060   -4.6090 hn        1 MOL      0.274376
    161 H79         9.2700    0.8470   -5.9950 hn        1 MOL      0.274376
    162 N14         4.6920    1.0520    1.0680 n         1 MOL      0.216975
    163 C49         3.8430    1.3410    2.2960 c3        1 MOL     -0.346641
    164 C50         4.3960    0.6770    3.5800 c         1 MOL      0.464810
    165 O22         4.1790    1.1000    4.7160 o         1 MOL     -0.538778
    166 C51         2.3650    0.9330    1.9520 c3        1 MOL      0.130216
    167 C52         1.7800    1.7560    0.8440 c3        1 MOL     -0.191863
    168 C53         0.5890    1.0970    0.1710 c         1 MOL      0.793944
    169 O23         0.5470   -0.1630   -0.0230 o         1 MOL     -0.697783
    170 O24        -0.3860    1.7370   -0.2630 o         1 MOL     -0.697783
    171 H80         4.3750    0.4050    0.3630 hn        1 MOL     -0.274291
    172 H81         3.9330    2.4130    2.4500 h1        1 MOL      0.157647
    173 H82         1.7230    1.0170    2.8310 hc        1 MOL      0.066859
    174 H83         2.2760   -0.0880    1.5780 hc        1 MOL      0.066859
    175 H84         2.5020    1.9580    0.0470 hc        1 MOL      0.039119
    176 H85         1.4670    2.7050    1.2630 hc        1 MOL      0.039119
    177 N15         5.2240   -0.3540    3.4290 n         1 MOL     -0.068420
    178 C54         5.9630   -1.0190    4.4680 c3        1 MOL     -0.239827
    179 H86         5.6200   -2.0500    4.5530 h1        1 MOL      0.091597
    180 H87         7.0250   -1.0080    4.2230 h1        1 MOL      0.091597
    181 H88         5.8030   -0.5040    5.4160 h1        1 MOL      0.091597
    182 H89         5.2680   -0.8020    2.5320 hn        1 MOL      0.153736
    183 Ca1        -1.8450   -0.2690   -1.3260 Ca        1 MOL      1.745611
    184 O25        -0.3890    0.4910   -3.5730 oh        1 MOL     -0.885247
    185 H90        -0.7690    1.3430   -3.7460 ho        1 MOL      0.408953
    186 H91        -0.5970   -0.0290   -4.3480 ho        1 MOL      0.408953
    187 O26        -0.9790   -2.3080   -3.0300 oh        1 MOL     -0.885247
    188 H92        -1.9280   -2.3220   -3.1720 ho        1 MOL      0.408953
    189 H93        -0.6250   -2.8480   -3.7440 ho        1 MOL      0.408953
@<TRIPOS>BOND
     1    1    2 1   
     2    1    4 1   
     3    1    5 1   
     4    1    6 1   
     5    2    3 2   
     6    2    7 1   
     7    7    8 1   
     8    7   15 1   
     9    8    9 1   
    10    8   11 1   
    11    8   16 1   
    12    9   10 2   
    13    9   19 1   
    14   11   12 1   
    15   11   17 1   
    16   11   18 1   
    17   12   13 1   
    18   12   14 1   
    19   19   20 1   
    20   19   28 1   
    21   20   21 1   
    22   20   23 1   
    23   20   29 1   
    24   21   22 2   
    25   21   41 1   
    26   23   24 1   
    27   23   30 1   
    28   23   31 1   
    29   24   25 1   
    30   24   32 1   
    31   24   33 1   
    32   25   26 1   
    33   25   34 1   
    34   25   35 1   
    35   26   27 1   
    36   26   36 1   
    37   26   37 1   
    38   27   38 1   
    39   27   39 1   
    40   27   40 1   
    41   41   42 1   
    42   41   49 1   
    43   42   43 1   
    44   42   45 1   
    45   42   50 1   
    46   43   44 2   
    47   43   53 1   
    48   45   46 1   
    49   45   51 1   
    50   45   52 1   
    51   46   47 1   
    52   46   48 1   
    53   53   54 1   
    54   53   57 1   
    55   54   55 1   
    56   54   58 1   
    57   54   59 1   
    58   55   56 2   
    59   55   60 1   
    60   60   61 1   
    61   60   68 1   
    62   61   62 1   
    63   61   64 1   
    64   61   69 1   
    65   62   63 2   
    66   62   72 1   
    67   64   65 1   
    68   64   70 1   
    69   64   71 1   
    70   65   66 1   
    71   65   67 1   
    72   72   73 1   
    73   72   76 1   
    74   73   74 1   
    75   73   77 1   
    76   73   78 1   
    77   74   75 2   
    78   74   79 1   
    79   79   80 1   
    80   79   86 1   
    81   80   81 1   
    82   80   83 1   
    83   80   87 1   
    84   81   82 2   
    85   81   93 1   
    86   83   84 1   
    87   83   85 1   
    88   83   88 1   
    89   84   90 1   
    90   84   91 1   
    91   84   92 1   
    92   85   89 1   
    93   93   94 1   
    94   93  101 1   
    95   94   95 1   
    96   94   97 1   
    97   94  102 1   
    98   95   96 2   
    99   95  112 1   
   100   97   98 1   
   101   97   99 1   
   102   97  103 1   
   103   98  100 1   
   104   98  104 1   
   105   98  105 1   
   106   99  106 1   
   107   99  107 1   
   108   99  108 1   
   109  100  109 1   
   110  100  110 1   
   111  100  111 1   
   112  112  113 1   
   113  112  119 1   
   114  113  114 1   
   115  113  116 1   
   116  113  120 1   
   117  114  115 2   
   118  114  126 1   
   119  116  117 1   
   120  116  118 1   
   121  116  121 1   
   122  117  123 1   
   123  117  124 1   
   124  117  125 1   
   125  118  122 1   
   126  126  127 1   
   127  126  133 1   
   128  127  128 1   
   129  127  130 1   
   130  127  134 1   
   131  128  129 2   
   132  128  140 1   
   133  130  131 1   
   134  130  132 1   
   135  130  135 1   
   136  131  137 1   
   137  131  138 1   
   138  131  139 1   
   139  132  136 1   
   140  140  141 1   
   141  140  149 1   
   142  141  142 1   
   143  141  144 1   
   144  141  150 1   
   145  142  143 2   
   146  142  162 1   
   147  144  145 1   
   148  144  151 1   
   149  144  152 1   
   150  145  146 1   
   151  145  153 1   
   152  145  154 1   
   153  146  147 1   
   154  146  155 1   
   155  146  156 1   
   156  147  148 1   
   157  147  157 1   
   158  147  158 1   
   159  148  159 1   
   160  148  160 1   
   161  148  161 1   
   162  162  163 1   
   163  162  171 1   
   164  163  164 1   
   165  163  166 1   
   166  163  172 1   
   167  164  165 2   
   168  164  177 1   
   169  166  167 1   
   170  166  173 1   
   171  166  174 1   
   172  167  168 1   
   173  167  175 1   
   174  167  176 1   
   175  168  169 1   
   176  168  170 1   
   177  177  178 1   
   178  177  182 1   
   179  178  179 1   
   180  178  180 1   
   181  178  181 1   
   182  184  185 1   
   183  184  186 1   
   184  187  188 1   
   185  187  189 1   
@<TRIPOS>SUBSTRUCTURE
     1 MOL         1 TEMP              0 ****  ****    0 ROOT
