@<TRIPOS>MOLECULE
MOL
  189   185     1     0     0
SMALL
resp


@<TRIPOS>ATOM
      1 C1          0.9120   -3.3580    6.6630 c3        1 MOL     -0.412765
      2 C2          1.0940   -3.0330    5.1870 c         1 MOL      0.746179
      3 O1          1.0400   -1.8540    4.7680 o         1 MOL     -0.620852
      4 H1          0.0340   -2.8350    7.0430 hc        1 MOL      0.104675
      5 H2          0.7770   -4.4320    6.7850 hc        1 MOL      0.104675
      6 H3          1.7940   -3.0360    7.2170 hc        1 MOL      0.104675
      7 N1          1.1930   -4.0360    4.3100 n         1 MOL     -0.600661
      8 C3          1.6390   -3.8030    2.8840 c3        1 MOL      0.100792
      9 C4          1.2720   -4.8920    1.9140 c         1 MOL      0.542152
     10 O2          1.2150   -6.0400    2.2940 o         1 MOL     -0.588098
     11 C5          3.1480   -3.6960    2.9770 c3        1 MOL     -0.139878
     12 C6          3.8510   -3.0480    1.8420 c         1 MOL      0.698004
     13 O3          5.0650   -2.8530    2.0090 o         1 MOL     -0.695015
     14 O4          3.2660   -2.6370    0.8060 o         1 MOL     -0.695015
     15 H4          1.1680   -4.9650    4.6960 hn        1 MOL      0.326268
     16 H5          1.3070   -2.8240    2.5150 h1        1 MOL      0.081646
     17 H6          3.5360   -4.6710    3.2610 hc        1 MOL      0.038580
     18 H7          3.3540   -3.1130    3.8750 hc        1 MOL      0.038580
     19 N2          1.0360   -4.4730    0.6420 n         1 MOL     -0.084747
     20 C7          0.8920   -5.4550   -0.4800 c3        1 MOL     -0.248325
     21 C8          2.0980   -5.3350   -1.4110 c         1 MOL      0.616684
     22 O5          2.5540   -6.3140   -2.0020 o         1 MOL     -0.582002
     23 C9         -0.4620   -5.2550   -1.2300 c3        1 MOL      0.214645
     24 C10        -1.6460   -5.4830   -0.3000 c3        1 MOL      0.063517
     25 C11        -0.4850   -6.1010   -2.5080 c3        1 MOL     -0.138239
     26 C12        -2.8890   -4.8740   -0.8830 c3        1 MOL     -0.130008
     27 H8          1.0490   -3.4790    0.4220 hn        1 MOL     -0.031677
     28 H9          0.8680   -6.4540   -0.0490 h1        1 MOL      0.092262
     29 H10        -0.6240   -4.2010   -1.4680 hc        1 MOL      0.001743
     30 H11        -1.4490   -4.9740    0.6350 hc        1 MOL     -0.028613
     31 H12        -1.8340   -6.5310   -0.0510 hc        1 MOL     -0.028613
     32 H13         0.1590   -5.7070   -3.2830 hc        1 MOL      0.022443
     33 H14        -0.3480   -7.1710   -2.3340 hc        1 MOL      0.022443
     34 H15        -1.5170   -6.1010   -2.8840 hc        1 MOL      0.022443
     35 H16        -3.3840   -4.3910   -0.0390 hc        1 MOL      0.030453
     36 H17        -2.6520   -4.1430   -1.6500 hc        1 MOL      0.030453
     37 H18        -3.4840   -5.6880   -1.3100 hc        1 MOL      0.030453
     38 N3          2.6610   -4.0880   -1.7140 n         1 MOL     -0.460405
     39 C13         3.5850   -4.0110   -2.8150 c3        1 MOL      0.096191
     40 C14         4.9950   -3.7000   -2.3570 c         1 MOL      0.376616
     41 O6          5.8780   -4.1560   -3.0390 o         1 MOL     -0.581774
     42 C15         3.1030   -2.8810   -3.7500 c3        1 MOL     -0.119506
     43 C16         2.9130   -1.5450   -3.0900 c         1 MOL      0.661200
     44 O7          3.1790   -1.2250   -1.9120 o         1 MOL     -0.685785
     45 O8          2.2390   -0.7890   -3.8010 o         1 MOL     -0.685785
     46 H19         2.5300   -3.2710   -1.1360 hn        1 MOL      0.323053
     47 H20         3.6880   -4.9300   -3.3870 h1        1 MOL      0.068439
     48 H21         2.1620   -3.0410   -4.2940 hc        1 MOL      0.034848
     49 H22         3.8300   -2.8430   -4.5520 hc        1 MOL      0.034848
     50 N4          5.2210   -2.9810   -1.3080 n         1 MOL      0.153157
     51 C17         6.5990   -2.6860   -0.7970 c3        1 MOL     -0.291425
     52 C18         7.2730   -1.5490   -1.4600 c         1 MOL      0.617343
     53 O9          8.3180   -1.6540   -2.1450 o         1 MOL     -0.579892
     54 H23         4.4070   -2.6840   -0.7730 hn        1 MOL     -0.057287
     55 H24         7.1420   -3.6310   -0.8380 h1        1 MOL      0.105584
     56 H25         6.4260   -2.3920    0.2400 h1        1 MOL      0.105584
     57 N5          6.6720   -0.3360   -1.3510 n         1 MOL     -0.554672
     58 C19         7.0650    0.8730   -2.0910 c3        1 MOL      0.164852
     59 C20         7.4430    2.0560   -1.2260 c         1 MOL      0.331773
     60 O10         8.0330    3.0750   -1.6160 o         1 MOL     -0.551891
     61 C21         5.8370    1.2930   -2.9120 c3        1 MOL     -0.076172
     62 C22         4.5300    1.5050   -2.2210 c         1 MOL      0.640386
     63 O11         4.4220    1.3750   -1.0020 o         1 MOL     -0.669568
     64 O12         3.5330    1.9540   -2.8780 o         1 MOL     -0.669568
     65 H26         5.8110   -0.3620   -0.8290 hn        1 MOL      0.257868
     66 H27         7.8410    0.6980   -2.8350 h1        1 MOL      0.081130
     67 H28         5.6000    0.5290   -3.6510 hc        1 MOL      0.031431
     68 H29         6.0790    2.1410   -3.5560 hc        1 MOL      0.031431
     69 N6          7.1630    1.9590    0.0620 n         1 MOL     -0.118196
     70 C23         7.4440    2.9660    1.0780 c3        1 MOL     -0.341783
     71 C24         6.3730    3.9980    1.1910 c         1 MOL      0.609816
     72 O13         6.6410    5.1390    1.5250 o         1 MOL     -0.581588
     73 H30         6.5890    1.1880    0.3850 hn        1 MOL      0.158718
     74 H31         8.3080    3.4880    0.6720 h1        1 MOL      0.136604
     75 H32         7.6670    2.5220    2.0480 h1        1 MOL      0.136604
     76 N7          5.1560    3.6200    0.8240 n         1 MOL     -0.332889
     77 C25         3.9180    4.3910    0.9440 c3        1 MOL     -0.205927
     78 C26         2.6580    3.5010    1.2960 c         1 MOL      0.785741
     79 O14         2.7220    2.2630    1.2710 o         1 MOL     -0.714404
     80 C27         3.6310    5.2030   -0.3560 c3        1 MOL      0.144896
     81 C28         4.7830    5.8710   -1.1590 c3        1 MOL     -0.214261
     82 C29         4.2900    7.1430   -1.8910 c         1 MOL      0.547133
     83 N8          3.8460    7.0330   -3.1400 n         1 MOL     -0.738875
     84 O15         4.0480    8.2170   -1.2940 o         1 MOL     -0.570685
     85 H33         4.9600    2.7540    0.3380 hn        1 MOL      0.306985
     86 H34         3.9560    5.0550    1.8160 h1        1 MOL      0.095431
     87 H35         2.9440    5.9860   -0.0430 hc        1 MOL      0.015356
     88 H36         3.1070    4.6040   -1.1010 hc        1 MOL      0.015356
     89 H37         5.1680    5.2390   -1.9620 hc        1 MOL      0.098566
     90 H38         5.5030    6.1680   -0.3910 hc        1 MOL      0.098566
     91 H39         3.9000    6.2090   -3.7080 hn        1 MOL      0.350653
     92 H40         3.4180    7.8710   -3.5090 hn        1 MOL      0.350653
     93 N9          1.4790    4.1480    1.4920 n         1 MOL     -0.680811
     94 C30         0.2680    3.5220    1.9740 c3        1 MOL      0.287448
     95 C31        -0.8880    3.5180    0.9960 c         1 MOL      0.585411
     96 O16        -1.2710    4.6500    0.7360 o         1 MOL     -0.607970
     97 C32        -0.1320    4.0870    3.3470 c3        1 MOL      0.317779
     98 C33        -1.4620    3.5750    3.9310 c3        1 MOL     -0.328996
     99 C34         0.9570    4.0370    4.4030 c3        1 MOL     -0.328996
    100 H41         1.4390    5.1160    1.1680 hn        1 MOL      0.291933
    101 H42         0.6340    2.5180    2.1980 h1        1 MOL     -0.009851
    102 H43        -0.2360    5.1620    3.1900 hc        1 MOL     -0.058964
    103 H44        -1.3180    2.5680    4.3290 hc        1 MOL      0.065910
    104 H45        -1.6740    4.2420    4.7720 hc        1 MOL      0.065910
    105 H46        -2.2180    3.5410    3.1420 hc        1 MOL      0.065910
    106 H47         1.9420    4.4140    4.1060 hc        1 MOL      0.065910
    107 H48         0.5890    4.6000    5.2670 hc        1 MOL      0.065910
    108 H49         1.1950    3.0460    4.7800 hc        1 MOL      0.065910
    109 N10        -1.2570    2.3910    0.4130 n         1 MOL     -0.637666
    110 C35        -2.3060    2.3750   -0.5870 c3        1 MOL      0.679113
    111 C36        -3.7130    2.3430    0.0080 c         1 MOL      0.112491
    112 O17        -3.9620    1.9940    1.1720 o         1 MOL     -0.293566
    113 C37        -1.9740    1.2930   -1.7070 c3        1 MOL     -0.083724
    114 C38        -2.9880    1.2720   -2.8400 c         1 MOL      0.620635
    115 N11        -3.3560    2.3340   -3.5100 n         1 MOL     -0.731905
    116 O18        -3.3990    0.1870   -3.2580 o         1 MOL     -0.507438
    117 H50        -0.8640    1.5360    0.8050 hn        1 MOL      0.241534
    118 H51        -2.3240    3.2870   -1.1930 h1        1 MOL     -0.106820
    119 H52        -1.8630    0.2810   -1.3260 hc        1 MOL      0.015978
    120 H53        -1.0600    1.7050   -2.1440 hc        1 MOL      0.015978
    121 H54        -2.7480    3.1250   -3.3180 hn        1 MOL      0.347311
    122 H55        -3.8820    2.2810   -4.3700 hn        1 MOL      0.347311
    123 N12        -4.7480    2.6230   -0.7740 n         1 MOL     -0.342328
    124 C39        -6.1500    2.3380   -0.4500 c3        1 MOL      0.328747
    125 C40        -6.3700    0.8460   -0.2350 c         1 MOL      0.686568
    126 O19        -7.2470    0.4580    0.6230 o         1 MOL     -0.561883
    127 C41        -6.9730    2.8640   -1.6090 c3        1 MOL     -0.219395
    128 C42        -8.4900    2.6530   -1.4970 ca        1 MOL     -0.207551
    129 C43        -9.1720    3.3320   -0.4410 ca        1 MOL      0.100247
    130 C44        -9.2140    1.7880   -2.3630 ca        1 MOL      0.100247
    131 C45       -10.5490    3.1770   -0.3220 ca        1 MOL     -0.494190
    132 C46       -10.5590    1.6640   -2.2710 ca        1 MOL     -0.494190
    133 C47       -11.2790    2.3390   -1.1950 ca        1 MOL      0.558758
    134 O20       -12.5990    2.2150   -0.9550 oh        1 MOL     -0.579919
    135 H56        -4.4840    2.8640   -1.7110 hn        1 MOL      0.118512
    136 H57        -6.4810    2.8000    0.4820 h1        1 MOL     -0.028139
    137 H58        -6.5840    2.3670   -2.4980 hc        1 MOL      0.083488
    138 H59        -6.8490    3.9480   -1.6740 hc        1 MOL      0.083488
    139 H60        -8.6540    4.0170    0.2110 ha        1 MOL      0.081493
    140 H61        -8.6570    1.2280   -3.1020 ha        1 MOL      0.081493
    141 H62       -11.0530    3.6600    0.5000 ha        1 MOL      0.188958
    142 H63       -11.0550    0.9570   -2.9140 ha        1 MOL      0.188958
    143 H64       -13.0810    1.9320   -1.7320 ho        1 MOL      0.391050
    144 N13        -5.5390   -0.0490   -0.8330 n         1 MOL     -0.582701
    145 C48        -5.7520   -1.5420   -0.5150 c3        1 MOL      0.011349
    146 C49        -5.1910   -1.9120    0.8570 c         1 MOL      0.347449
    147 O21        -5.4140   -3.0140    1.3250 o         1 MOL     -0.509847
    148 C50        -5.1550   -2.5120   -1.6360 c3        1 MOL      0.218166
    149 C51        -5.8090   -2.3560   -3.0290 c3        1 MOL     -0.290160
    150 C52        -7.2020   -2.8330   -3.0330 c         1 MOL      0.635195
    151 O22        -8.1070   -2.0030   -2.8620 o         1 MOL     -0.703998
    152 O23        -7.4760   -4.0360   -3.1200 o         1 MOL     -0.703998
    153 H65        -4.9300    0.1210   -1.6310 hn        1 MOL      0.266806
    154 H66        -6.8240   -1.7350   -0.4620 h1        1 MOL      0.163669
    155 H67        -5.3130   -3.5350   -1.2900 hc        1 MOL     -0.023525
    156 H68        -4.1010   -2.3090   -1.7750 hc        1 MOL     -0.023525
    157 H69        -5.1580   -2.8500   -3.7380 hc        1 MOL      0.046039
    158 H70        -5.7300   -1.3010   -3.2730 hc        1 MOL      0.046039
    159 N14        -4.4270   -1.0240    1.5250 n         1 MOL     -0.110726
    160 C53        -3.5770   -1.2970    2.6560 c3        1 MOL     -0.089049
    161 C54        -4.0640   -0.5250    3.8930 c         1 MOL      0.471558
    162 O24        -4.0570   -1.1170    4.9960 o         1 MOL     -0.574371
    163 C55        -2.1440   -0.7640    2.3900 c3        1 MOL     -0.123046
    164 C56        -1.4510   -1.6480    1.2310 c3        1 MOL      0.050417
    165 C57        -0.2600   -1.0760    0.6220 c         1 MOL      0.546331
    166 O25         0.4920   -1.6870   -0.1910 o         1 MOL     -0.625722
    167 O26         0.1880    0.0640    0.9620 o         1 MOL     -0.625722
    168 H71        -4.3070   -0.1310    1.0670 hn        1 MOL      0.060421
    169 H72        -3.5960   -2.3560    2.9150 h1        1 MOL      0.111520
    170 H73        -1.5880   -0.8340    3.3260 hc        1 MOL      0.042845
    171 H74        -2.0810    0.3160    2.2270 hc        1 MOL      0.042845
    172 H75        -2.2420   -1.7280    0.4940 hc        1 MOL      0.044463
    173 H76        -1.2680   -2.6770    1.5440 hc        1 MOL      0.044463
    174 N15        -4.6440    0.6650    3.7600 n         1 MOL     -0.095149
    175 C58        -5.1830    1.4370    4.8780 c3        1 MOL     -0.168033
    176 H77        -5.0730    2.5020    4.6710 h1        1 MOL      0.071601
    177 H78        -6.2390    1.2000    5.0080 h1        1 MOL      0.071601
    178 H79        -4.6400    1.1870    5.7900 h1        1 MOL      0.071601
    179 H80        -4.7490    1.0510    2.8370 hn        1 MOL      0.058221
    180 Ca1         2.6720   -0.1010    0.3110 Ca        1 MOL      1.796709
    181 O27         2.4320   -0.2870    3.0110 oh        1 MOL     -0.816357
    182 H81         1.8100   -0.5780    3.6780 ho        1 MOL      0.393253
    183 H82         3.1320    0.1340    3.5050 ho        1 MOL      0.393253
    184 O28         1.4280    1.0690   -1.6850 oh        1 MOL     -0.816357
    185 H83         2.1490    1.4970   -2.1540 ho        1 MOL      0.393253
    186 H84         1.1830    0.3350   -2.2540 ho        1 MOL      0.393253
    187 O29         5.2450   -0.2380    1.5430 oh        1 MOL     -0.816357
    188 H85         5.4400   -1.1760    1.5440 ho        1 MOL      0.393253
    189 H86         5.2220    0.0130    2.4630 ho        1 MOL      0.393253
@<TRIPOS>BOND
     1    1    2 1   
     2    1    4 1   
     3    1    5 1   
     4    1    6 1   
     5    2    3 2   
     6    2    7 1   
     7    7    8 1   
     8    7   15 1   
     9    8    9 1   
    10    8   11 1   
    11    8   16 1   
    12    9   10 2   
    13    9   19 1   
    14   11   12 1   
    15   11   17 1   
    16   11   18 1   
    17   12   13 1   
    18   12   14 1   
    19   19   20 1   
    20   19   27 1   
    21   20   21 1   
    22   20   23 1   
    23   20   28 1   
    24   21   22 2   
    25   21   38 1   
    26   23   24 1   
    27   23   25 1   
    28   23   29 1   
    29   24   26 1   
    30   24   30 1   
    31   24   31 1   
    32   25   32 1   
    33   25   33 1   
    34   25   34 1   
    35   26   35 1   
    36   26   36 1   
    37   26   37 1   
    38   38   39 1   
    39   38   46 1   
    40   39   40 1   
    41   39   42 1   
    42   39   47 1   
    43   40   41 2   
    44   40   50 1   
    45   42   43 1   
    46   42   48 1   
    47   42   49 1   
    48   43   44 1   
    49   43   45 1   
    50   50   51 1   
    51   50   54 1   
    52   51   52 1   
    53   51   55 1   
    54   51   56 1   
    55   52   53 2   
    56   52   57 1   
    57   57   58 1   
    58   57   65 1   
    59   58   59 1   
    60   58   61 1   
    61   58   66 1   
    62   59   60 2   
    63   59   69 1   
    64   61   62 1   
    65   61   67 1   
    66   61   68 1   
    67   62   63 1   
    68   62   64 1   
    69   69   70 1   
    70   69   73 1   
    71   70   71 1   
    72   70   74 1   
    73   70   75 1   
    74   71   72 2   
    75   71   76 1   
    76   76   77 1   
    77   76   85 1   
    78   77   78 1   
    79   77   80 1   
    80   77   86 1   
    81   78   79 2   
    82   78   93 1   
    83   80   81 1   
    84   80   87 1   
    85   80   88 1   
    86   81   82 1   
    87   81   89 1   
    88   81   90 1   
    89   82   83 1   
    90   82   84 2   
    91   83   91 1   
    92   83   92 1   
    93   93   94 1   
    94   93  100 1   
    95   94   95 1   
    96   94   97 1   
    97   94  101 1   
    98   95   96 2   
    99   95  109 1   
   100   97   98 1   
   101   97   99 1   
   102   97  102 1   
   103   98  103 1   
   104   98  104 1   
   105   98  105 1   
   106   99  106 1   
   107   99  107 1   
   108   99  108 1   
   109  109  110 1   
   110  109  117 1   
   111  110  111 1   
   112  110  113 1   
   113  110  118 1   
   114  111  112 2   
   115  111  123 1   
   116  113  114 1   
   117  113  119 1   
   118  113  120 1   
   119  114  115 1   
   120  114  116 2   
   121  115  121 1   
   122  115  122 1   
   123  123  124 1   
   124  123  135 1   
   125  124  125 1   
   126  124  127 1   
   127  124  136 1   
   128  125  126 2   
   129  125  144 1   
   130  127  128 1   
   131  127  137 1   
   132  127  138 1   
   133  128  129 ar  
   134  128  130 ar  
   135  129  131 ar  
   136  129  139 1   
   137  130  132 ar  
   138  130  140 1   
   139  131  133 ar  
   140  131  141 1   
   141  132  133 ar  
   142  132  142 1   
   143  133  134 1   
   144  134  143 1   
   145  144  145 1   
   146  144  153 1   
   147  145  146 1   
   148  145  148 1   
   149  145  154 1   
   150  146  147 2   
   151  146  159 1   
   152  148  149 1   
   153  148  155 1   
   154  148  156 1   
   155  149  150 1   
   156  149  157 1   
   157  149  158 1   
   158  150  151 1   
   159  150  152 1   
   160  159  160 1   
   161  159  168 1   
   162  160  161 1   
   163  160  163 1   
   164  160  169 1   
   165  161  162 2   
   166  161  174 1   
   167  163  164 1   
   168  163  170 1   
   169  163  171 1   
   170  164  165 1   
   171  164  172 1   
   172  164  173 1   
   173  165  166 1   
   174  165  167 1   
   175  174  175 1   
   176  174  179 1   
   177  175  176 1   
   178  175  177 1   
   179  175  178 1   
   180  181  182 1   
   181  181  183 1   
   182  184  185 1   
   183  184  186 1   
   184  187  188 1   
   185  187  189 1   
@<TRIPOS>SUBSTRUCTURE
     1 MOL         1 TEMP              0 ****  ****    0 ROOT
