@<TRIPOS>MOLECULE
MOL
  175   173     1     0     0
SMALL
resp


@<TRIPOS>ATOM
      1 C1          0.6840    3.9950    5.4110 c3        1 MOL     -0.440071
      2 C2          0.1190    3.8150    3.9360 c         1 MOL      0.648888
      3 O1          0.8950    3.8480    2.9430 o         1 MOL     -0.534365
      4 H1         -0.1320    3.8980    6.1270 hc        1 MOL      0.114423
      5 H2          1.4340    3.2280    5.6090 hc        1 MOL      0.114423
      6 H3          1.1380    4.9810    5.5090 hc        1 MOL      0.114423
      7 N1         -1.2360    3.6460    3.8490 n         1 MOL     -0.631012
      8 C3         -2.0010    3.3970    2.5870 c3        1 MOL      0.314294
      9 C4         -2.0900    4.6030    1.7230 c         1 MOL      0.433580
     10 O2         -2.5640    5.6790    2.0940 o         1 MOL     -0.586550
     11 C5         -3.4630    2.8530    2.8670 c3        1 MOL     -0.406469
     12 C6         -4.1460    2.0730    1.7790 c         1 MOL      0.918886
     13 O3         -5.3030    1.6760    2.0280 o         1 MOL     -0.710940
     14 O4         -3.5390    1.9250    0.6930 o         1 MOL     -0.710940
     15 H4         -1.7500    3.6710    4.7100 hn        1 MOL      0.329747
     16 H5         -1.5030    2.5990    2.0500 h1        1 MOL      0.045062
     17 H6         -4.1860    3.6300    3.1340 hc        1 MOL      0.066996
     18 H7         -3.3360    2.1660    3.7040 hc        1 MOL      0.066996
     19 N2         -1.6280    4.3850    0.5210 n         1 MOL     -0.186974
     20 C7         -1.8740    5.3330   -0.5860 c3        1 MOL      0.089991
     21 C8         -3.0020    5.1130   -1.5960 c         1 MOL      0.528717
     22 O5         -3.1950    5.9530   -2.4300 o         1 MOL     -0.546520
     23 C9         -0.4390    5.3530   -1.1910 c3        1 MOL     -0.050412
     24 H8         -1.1300    3.5310    0.3100 hn        1 MOL      0.136722
     25 H9         -2.0180    6.3270   -0.1750 h1        1 MOL      0.031677
     26 H10        -0.4370    6.0670   -2.0180 hc        1 MOL      0.007123
     27 H11         0.3320    5.5900   -0.4750 hc        1 MOL      0.007123
     28 H12        -0.1260    4.4190   -1.6540 hc        1 MOL      0.007123
     29 N3         -3.6790    3.9230   -1.5540 n         1 MOL     -0.422125
     30 C10        -4.6710    3.4610   -2.5500 c3        1 MOL      0.207996
     31 C11        -6.0180    3.0020   -2.0990 c         1 MOL      0.309627
     32 O6         -6.9940    3.2330   -2.8790 o         1 MOL     -0.565865
     33 C12        -3.9090    2.5650   -3.6410 c3        1 MOL     -0.288007
     34 C13        -3.2990    1.3650   -2.8790 c         1 MOL      0.730911
     35 O7         -3.9750    0.7980   -1.9970 o         1 MOL     -0.702324
     36 O8         -2.1150    1.1690   -2.9470 o         1 MOL     -0.702324
     37 H13        -3.5460    3.2870   -0.7770 hn        1 MOL      0.175644
     38 H14        -4.8730    4.3270   -3.1670 h1        1 MOL      0.042591
     39 H15        -3.0220    3.1310   -3.9340 hc        1 MOL      0.081858
     40 H16        -4.4390    2.2140   -4.5290 hc        1 MOL      0.081858
     41 N4         -6.0840    2.4050   -0.9690 n         1 MOL     -0.071139
     42 C14        -7.3050    1.7590   -0.5650 c3        1 MOL     -0.270949
     43 C15        -7.4580    0.2660   -1.1270 c         1 MOL      0.512126
     44 O9         -8.5350   -0.3030   -0.9150 o         1 MOL     -0.600799
     45 H17        -5.2080    2.3040   -0.4750 hn        1 MOL      0.104948
     46 H18        -8.1130    2.4230   -0.8760 h1        1 MOL      0.135546
     47 H19        -7.3950    1.6770    0.5130 h1        1 MOL      0.135546
     48 N5         -6.4650   -0.3620   -1.7460 n         1 MOL     -0.216613
     49 C16        -6.4170   -1.6990   -2.1820 c3        1 MOL     -0.180375
     50 C17        -6.4150   -2.7250   -1.0500 c         1 MOL      0.585559
     51 O10        -6.5600   -3.9250   -1.3750 o         1 MOL     -0.581904
     52 C18        -5.2710   -1.9490   -3.1890 c3        1 MOL      0.051446
     53 C19        -3.8870   -2.2880   -2.5820 c         1 MOL      0.360981
     54 N6         -2.9340   -2.5420   -3.4920 n         1 MOL     -0.666311
     55 O11        -3.7020   -2.3240   -1.4190 o         1 MOL     -0.242457
     56 H20        -5.5800    0.1180   -1.6950 hn        1 MOL      0.189131
     57 H21        -7.3760   -1.9240   -2.6540 h1        1 MOL      0.122915
     58 H22        -5.1450   -1.1990   -3.9710 hc        1 MOL      0.017094
     59 H23        -5.6310   -2.7680   -3.8170 hc        1 MOL      0.017094
     60 H24        -3.1510   -2.6050   -4.4820 hn        1 MOL      0.352285
     61 H25        -2.0210   -2.7120   -3.0980 hn        1 MOL      0.352285
     62 N7         -6.4040   -2.2900    0.1990 n         1 MOL     -0.303244
     63 C20        -6.5540   -3.2030    1.3730 c3        1 MOL     -0.202615
     64 C21        -5.3040   -4.0660    1.7380 c         1 MOL      0.443602
     65 O12        -5.4490   -4.9790    2.5540 o         1 MOL     -0.545181
     66 H26        -6.0090   -1.3940    0.4440 hn        1 MOL      0.289647
     67 H27        -7.4250   -3.8250    1.2040 h1        1 MOL      0.121836
     68 H28        -6.9100   -2.5740    2.1840 h1        1 MOL      0.121836
     69 N8         -4.0990   -3.6910    1.2140 n         1 MOL      0.104690
     70 C22        -2.8300   -4.3410    1.5150 c3        1 MOL     -0.434771
     71 C23        -1.6200   -3.3820    1.5110 c         1 MOL      0.796486
     72 O13        -1.7160   -2.3500    0.7890 o         1 MOL     -0.689196
     73 C24        -2.5770   -5.3680    0.4070 c3        1 MOL      0.588709
     74 C25        -3.6170   -6.4970    0.2870 c3        1 MOL     -0.382046
     75 O14        -2.5500   -4.7260   -0.8040 oh        1 MOL     -0.580787
     76 H29        -4.1250   -2.8350    0.6750 hn        1 MOL     -0.103043
     77 H30        -2.8220   -4.9300    2.4350 h1        1 MOL      0.100261
     78 H31        -1.6040   -5.8320    0.5830 h1        1 MOL     -0.069915
     79 H32        -2.8830   -3.8340   -0.6640 ho        1 MOL      0.265451
     80 H33        -3.3040   -7.4570   -0.1290 hc        1 MOL      0.084419
     81 H34        -3.9460   -6.7660    1.2880 hc        1 MOL      0.084419
     82 H35        -4.4720   -6.1750   -0.3060 hc        1 MOL      0.084419
     83 N9         -0.5270   -3.5960    2.1600 n         1 MOL     -0.476255
     84 C26         0.7290   -2.8300    1.9960 c3        1 MOL     -0.006214
     85 C27         1.3540   -3.1460    0.6460 c         1 MOL      0.503562
     86 O15         1.6410   -4.2770    0.2610 o         1 MOL     -0.572698
     87 C28         1.5310   -2.9970    3.2710 c3        1 MOL      0.100929
     88 C29         0.7820   -2.2910    4.4270 c3        1 MOL      0.009533
     89 C30         2.9360   -2.4180    3.0200 c3        1 MOL     -0.137621
     90 C31         1.5000   -2.2680    5.7980 c3        1 MOL     -0.069353
     91 H36        -0.4730   -4.4430    2.7190 hn        1 MOL      0.281783
     92 H37         0.4690   -1.7900    1.8310 h1        1 MOL     -0.002419
     93 H38         1.6170   -4.0640    3.4910 hc        1 MOL      0.006775
     94 H39        -0.1670   -2.8250    4.5040 hc        1 MOL     -0.008912
     95 H40         0.4930   -1.2780    4.1460 hc        1 MOL     -0.008912
     96 H41         2.8450   -1.3720    2.7320 hc        1 MOL      0.024858
     97 H42         3.5600   -2.5100    3.9130 hc        1 MOL      0.024858
     98 H43         3.4350   -2.9470    2.2130 hc        1 MOL      0.024858
     99 H44         2.4950   -1.8320    5.8130 hc        1 MOL      0.014338
    100 H45         0.9160   -1.8590    6.6230 hc        1 MOL      0.014338
    101 H46         1.7970   -3.3080    5.9840 hc        1 MOL      0.014338
    102 N10         1.6910   -2.0810   -0.1100 n         1 MOL     -0.046525
    103 C32         2.6270   -2.0700   -1.2580 c3        1 MOL      0.124337
    104 C33         4.0890   -1.6680   -0.8670 c         1 MOL      0.349797
    105 O16         4.3380   -1.3150    0.2770 o         1 MOL     -0.318147
    106 C34         2.0370   -1.1080   -2.2970 c3        1 MOL     -0.280833
    107 C35         0.5390   -1.3800   -2.7180 c         1 MOL      0.702728
    108 O17        -0.3460   -1.0380   -1.9120 o         1 MOL     -0.672143
    109 O18         0.2750   -2.0530   -3.7350 o         1 MOL     -0.672143
    110 H47         1.2300   -1.2180    0.1430 hn        1 MOL      0.000543
    111 H48         2.7070   -3.1030   -1.5960 h1        1 MOL      0.047499
    112 H49         2.6890   -1.1860   -3.1610 hc        1 MOL      0.054871
    113 H50         2.0610   -0.0890   -1.9140 hc        1 MOL      0.054871
    114 N11         5.0720   -1.7960   -1.8180 n         1 MOL     -0.587208
    115 C36         6.4870   -1.6640   -1.5450 c3        1 MOL      0.407701
    116 C37         6.9130   -0.2430   -0.9890 c         1 MOL      0.192729
    117 O19         7.7260   -0.1360   -0.0400 o         1 MOL     -0.411488
    118 C38         7.4120   -2.2040   -2.6360 c3        1 MOL     -0.357459
    119 C39         8.8580   -1.7930   -2.3260 ca        1 MOL      0.150509
    120 C40         9.5930   -2.2330   -1.1880 ca        1 MOL     -0.186940
    121 C41         9.5170   -0.8630   -3.1490 ca        1 MOL     -0.186940
    122 C42        10.9080   -1.7640   -0.9300 ca        1 MOL     -0.132034
    123 C43        10.8420   -0.4160   -2.9000 ca        1 MOL     -0.132034
    124 C44        11.5200   -0.8240   -1.7750 ca        1 MOL     -0.058160
    125 H51         4.8270   -2.1680   -2.7330 hn        1 MOL      0.339087
    126 H52         6.6830   -2.3230   -0.6950 h1        1 MOL      0.041817
    127 H53         6.9950   -1.8460   -3.5790 hc        1 MOL      0.106476
    128 H54         7.3860   -3.2880   -2.5210 hc        1 MOL      0.106476
    129 H55         9.1750   -2.9550   -0.4940 ha        1 MOL      0.122179
    130 H56         8.9540   -0.4820   -3.9990 ha        1 MOL      0.122179
    131 H57        11.4980   -2.1100   -0.0950 ha        1 MOL      0.111816
    132 H58        11.4210    0.2740   -3.4840 ha        1 MOL      0.111816
    133 H59        12.5130   -0.4760   -1.5810 ha        1 MOL      0.090879
    134 N12         6.5610    0.9510   -1.6160 n         1 MOL      0.041998
    135 C45         6.7460    2.2230   -0.9970 c3        1 MOL     -0.011843
    136 C46         5.9170    2.4440    0.2890 c         1 MOL      0.348210
    137 O20         6.3160    3.1820    1.1900 o         1 MOL     -0.476359
    138 C47         6.4440    3.2540   -2.0910 c3        1 MOL     -0.140724
    139 C48         5.4320    2.4800   -3.0310 c3        1 MOL     -0.028577
    140 C49         5.9200    1.0250   -2.9370 c3        1 MOL     -0.029175
    141 H60         7.7930    2.4190   -0.7580 h1        1 MOL      0.058426
    142 H61         6.1890    4.2650   -1.7620 hc        1 MOL      0.067891
    143 H62         7.3400    3.3130   -2.7020 hc        1 MOL      0.067891
    144 H63         4.4620    2.5390   -2.5380 hc        1 MOL      0.035973
    145 H64         5.3650    2.8770   -4.0430 hc        1 MOL      0.035973
    146 H65         5.1370    0.2620   -2.9610 h1        1 MOL      0.013156
    147 H66         6.6610    0.9410   -3.7300 h1        1 MOL      0.013156
    148 N13         4.7510    1.7650    0.4330 n         1 MOL     -0.221834
    149 C50         4.0060    1.8260    1.7840 c3        1 MOL      0.008278
    150 C51         4.8160    1.0800    2.8640 c         1 MOL      0.332575
    151 O21         5.0980    1.6470    3.9390 o         1 MOL     -0.564564
    152 C52         2.6020    1.2490    1.6240 c3        1 MOL     -0.018557
    153 C53         1.8790    1.9040    0.4420 c3        1 MOL     -0.084386
    154 C54         0.4460    1.3750    0.3760 c         1 MOL      0.462471
    155 O22         0.1210    0.3100    0.9750 o         1 MOL     -0.538151
    156 O23        -0.3930    1.9020   -0.4630 o         1 MOL     -0.538151
    157 H67         4.4370    1.1040   -0.2600 hn        1 MOL      0.210256
    158 H68         3.9470    2.8420    2.1670 h1        1 MOL      0.111670
    159 H69         2.0320    1.3900    2.5360 hc        1 MOL      0.048697
    160 H70         2.6940    0.1950    1.3730 hc        1 MOL      0.048697
    161 H71         2.3830    1.7840   -0.5150 hc        1 MOL      0.044395
    162 H72         1.9010    2.9680    0.6560 hc        1 MOL      0.044395
    163 N14         5.4400   -0.0390    2.6290 n         1 MOL      0.047788
    164 C55         6.4850   -0.7780    3.3750 c3        1 MOL     -0.095264
    165 H73         7.3850   -0.8480    2.7640 h1        1 MOL      0.050966
    166 H74         6.7140   -0.2490    4.2990 h1        1 MOL      0.050966
    167 H75         6.1250   -1.7800    3.6080 h1        1 MOL      0.050966
    168 H76         5.2090   -0.4260    1.7220 hn        1 MOL     -0.015683
    169 Ca1        -2.1780   -0.0330   -0.4820 Ca        1 MOL      1.670306
    170 O24        -4.2050   -0.7350    1.2950 oh        1 MOL     -0.782130
    171 H77        -4.9310   -0.1770    1.5860 ho        1 MOL      0.381305
    172 H78        -3.5430   -0.6260    1.9820 ho        1 MOL      0.381305
    173 O25        -1.9520   -0.0040    2.5860 oh        1 MOL     -0.782130
    174 H79        -1.8720    0.4870    3.4050 ho        1 MOL      0.381305
    175 H80        -1.0500   -0.2000    2.3350 ho        1 MOL      0.381305
@<TRIPOS>BOND
     1    1    2 1   
     2    1    4 1   
     3    1    5 1   
     4    1    6 1   
     5    2    3 2   
     6    2    7 1   
     7    7    8 1   
     8    7   15 1   
     9    8    9 1   
    10    8   11 1   
    11    8   16 1   
    12    9   10 2   
    13    9   19 1   
    14   11   12 1   
    15   11   17 1   
    16   11   18 1   
    17   12   13 1   
    18   12   14 1   
    19   19   20 1   
    20   19   24 1   
    21   20   21 1   
    22   20   23 1   
    23   20   25 1   
    24   21   22 2   
    25   21   29 1   
    26   23   26 1   
    27   23   27 1   
    28   23   28 1   
    29   29   30 1   
    30   29   37 1   
    31   30   31 1   
    32   30   33 1   
    33   30   38 1   
    34   31   32 2   
    35   31   41 1   
    36   33   34 1   
    37   33   39 1   
    38   33   40 1   
    39   34   35 1   
    40   34   36 1   
    41   41   42 1   
    42   41   45 1   
    43   42   43 1   
    44   42   46 1   
    45   42   47 1   
    46   43   44 2   
    47   43   48 1   
    48   48   49 1   
    49   48   56 1   
    50   49   50 1   
    51   49   52 1   
    52   49   57 1   
    53   50   51 2   
    54   50   62 1   
    55   52   53 1   
    56   52   58 1   
    57   52   59 1   
    58   53   54 1   
    59   53   55 2   
    60   54   60 1   
    61   54   61 1   
    62   62   63 1   
    63   62   66 1   
    64   63   64 1   
    65   63   67 1   
    66   63   68 1   
    67   64   65 2   
    68   64   69 1   
    69   69   70 1   
    70   69   76 1   
    71   70   71 1   
    72   70   73 1   
    73   70   77 1   
    74   71   72 2   
    75   71   83 1   
    76   73   74 1   
    77   73   75 1   
    78   73   78 1   
    79   74   80 1   
    80   74   81 1   
    81   74   82 1   
    82   75   79 1   
    83   83   84 1   
    84   83   91 1   
    85   84   85 1   
    86   84   87 1   
    87   84   92 1   
    88   85   86 2   
    89   85  102 1   
    90   87   88 1   
    91   87   89 1   
    92   87   93 1   
    93   88   90 1   
    94   88   94 1   
    95   88   95 1   
    96   89   96 1   
    97   89   97 1   
    98   89   98 1   
    99   90   99 1   
   100   90  100 1   
   101   90  101 1   
   102  102  103 1   
   103  102  110 1   
   104  103  104 1   
   105  103  106 1   
   106  103  111 1   
   107  104  105 2   
   108  104  114 1   
   109  106  107 1   
   110  106  112 1   
   111  106  113 1   
   112  107  108 1   
   113  107  109 1   
   114  114  115 1   
   115  114  125 1   
   116  115  116 1   
   117  115  118 1   
   118  115  126 1   
   119  116  117 2   
   120  116  134 1   
   121  118  119 1   
   122  118  127 1   
   123  118  128 1   
   124  119  120 ar  
   125  119  121 ar  
   126  120  122 ar  
   127  120  129 1   
   128  121  123 ar  
   129  121  130 1   
   130  122  124 ar  
   131  122  131 1   
   132  123  124 ar  
   133  123  132 1   
   134  124  133 1   
   135  134  135 1   
   136  134  140 1   
   137  135  136 1   
   138  135  138 1   
   139  135  141 1   
   140  136  137 2   
   141  136  148 1   
   142  138  139 1   
   143  138  142 1   
   144  138  143 1   
   145  139  140 1   
   146  139  144 1   
   147  139  145 1   
   148  140  146 1   
   149  140  147 1   
   150  148  149 1   
   151  148  157 1   
   152  149  150 1   
   153  149  152 1   
   154  149  158 1   
   155  150  151 2   
   156  150  163 1   
   157  152  153 1   
   158  152  159 1   
   159  152  160 1   
   160  153  154 1   
   161  153  161 1   
   162  153  162 1   
   163  154  155 1   
   164  154  156 1   
   165  163  164 1   
   166  163  168 1   
   167  164  165 1   
   168  164  166 1   
   169  164  167 1   
   170  170  171 1   
   171  170  172 1   
   172  173  174 1   
   173  173  175 1   
@<TRIPOS>SUBSTRUCTURE
     1 MOL         1 TEMP              0 ****  ****    0 ROOT
