@<TRIPOS>MOLECULE
MOL
  189   185     1     0     0
SMALL
resp


@<TRIPOS>ATOM
      1 C1         -1.2140    1.7000    6.7020 c3        1 MOL     -0.298769
      2 C2         -1.2410    1.4600    5.2190 c         1 MOL      0.749078
      3 O1         -0.2360    1.6120    4.4830 o         1 MOL     -0.654628
      4 H1         -1.4660    2.7400    6.9060 hc        1 MOL      0.080275
      5 H2         -1.9400    1.0480    7.1890 hc        1 MOL      0.080275
      6 H3         -0.2170    1.4850    7.0880 hc        1 MOL      0.080275
      7 N1         -2.3910    1.2330    4.6400 n         1 MOL     -0.590627
      8 C3         -2.6390    1.0870    3.1990 c3        1 MOL     -0.039269
      9 C4         -2.7960    2.4740    2.6210 c         1 MOL      0.577132
     10 O2         -3.7950    3.1630    2.8370 o         1 MOL     -0.542721
     11 C5         -3.9200    0.3070    2.8590 c3        1 MOL      0.066979
     12 C6         -4.3950    0.2660    1.3580 c         1 MOL      0.601054
     13 O3         -5.4380   -0.3940    1.1000 o         1 MOL     -0.679687
     14 O4         -3.7590    0.7310    0.3630 o         1 MOL     -0.679687
     15 H4         -3.1450    0.9100    5.2310 hn        1 MOL      0.330336
     16 H5         -1.8690    0.5890    2.6100 h1        1 MOL      0.066842
     17 H6         -4.7260    0.5980    3.5280 hc        1 MOL     -0.005917
     18 H7         -3.7460   -0.7570    3.0230 hc        1 MOL     -0.005917
     19 N2         -1.7800    2.8740    1.8430 n         1 MOL     -0.093863
     20 C7         -1.5840    4.3220    1.6300 c3        1 MOL     -0.494502
     21 C8         -2.5270    4.9140    0.6030 c         1 MOL      0.672897
     22 O5         -2.9460    6.0700    0.7460 o         1 MOL     -0.616018
     23 C9         -0.0460    4.6300    1.4280 c3        1 MOL      0.371239
     24 C10         0.2490    6.1200    1.5060 c3        1 MOL      0.033977
     25 C11         1.7590    6.4390    1.5070 c3        1 MOL     -0.026581
     26 C12         2.1400    7.5800    0.5630 c3        1 MOL      0.064021
     27 N3          3.5230    8.0040    0.6800 n4        1 MOL     -0.257129
     28 H8         -1.0350    2.2390    1.5960 hn        1 MOL      0.244971
     29 H9         -1.7860    4.8180    2.5790 h1        1 MOL      0.142160
     30 H10         0.2860    4.2370    0.4680 hc        1 MOL     -0.059033
     31 H11         0.5600    4.1440    2.2000 hc        1 MOL     -0.059033
     32 H12        -0.2270    6.5590    2.3780 hc        1 MOL     -0.007227
     33 H13        -0.0950    6.5020    0.5400 hc        1 MOL     -0.007227
     34 H14         2.3160    5.5600    1.1900 hc        1 MOL      0.025607
     35 H15         2.1060    6.7140    2.5010 hc        1 MOL      0.025607
     36 H16         1.5820    8.4600    0.8800 hx        1 MOL      0.061599
     37 H17         2.0220    7.3390   -0.5000 hx        1 MOL      0.061599
     38 H18         4.2070    7.2700    0.7610 hn        1 MOL      0.294862
     39 H19         3.7410    8.6630   -0.0420 hn        1 MOL      0.294862
     40 H20         3.6550    8.5430    1.5230 hn        1 MOL      0.294862
     41 N4         -2.8160    4.2170   -0.4540 n         1 MOL     -0.318202
     42 C13        -3.6100    4.7040   -1.5370 c3        1 MOL      0.016859
     43 C14        -5.0370    4.1250   -1.6310 c         1 MOL      0.380399
     44 O6         -5.7670    4.6520   -2.4710 o         1 MOL     -0.527819
     45 C15        -2.8310    4.5350   -2.8150 c3        1 MOL     -0.202875
     46 C16        -2.2220    3.1320   -3.1400 c         1 MOL      0.816152
     47 O7         -1.3220    3.0720   -4.0550 o         1 MOL     -0.747480
     48 O8         -2.5040    2.2080   -2.3710 o         1 MOL     -0.747480
     49 H21        -2.4600    3.2710   -0.5380 hn        1 MOL      0.155384
     50 H22        -3.7100    5.7830   -1.4440 h1        1 MOL      0.102603
     51 H23        -2.0960    5.3380   -2.8380 hc        1 MOL      0.048717
     52 H24        -3.4510    4.7880   -3.6770 hc        1 MOL      0.048717
     53 N5         -5.3770    3.0860   -0.8440 n         1 MOL      0.094261
     54 C17        -6.6200    2.3610   -0.7090 c3        1 MOL     -0.526517
     55 C18        -6.9210    1.2820   -1.7970 c         1 MOL      0.891280
     56 O9         -7.3690    1.5440   -2.8530 o         1 MOL     -0.556636
     57 H25        -4.6490    2.8470   -0.1920 hn        1 MOL      0.056859
     58 H26        -7.4930    2.9660   -0.4800 h1        1 MOL      0.159511
     59 H27        -6.4190    1.9170    0.2740 h1        1 MOL      0.159511
     60 N6         -6.7650    0.0020   -1.4750 n         1 MOL     -0.697488
     61 C19        -7.0010   -1.1720   -2.3130 c3        1 MOL      0.155602
     62 C20        -7.2000   -2.5330   -1.4740 c         1 MOL      0.300586
     63 O10        -7.7160   -3.5490   -1.9720 o         1 MOL     -0.505671
     64 C21        -5.8570   -1.3680   -3.3160 c3        1 MOL     -0.115343
     65 C22        -4.4860   -1.0790   -2.7280 c         1 MOL      0.502688
     66 O11        -3.7500   -0.3000   -3.4150 o         1 MOL     -0.602891
     67 O12        -4.1560   -1.5780   -1.6150 o         1 MOL     -0.602891
     68 H28        -6.2180   -0.1060   -0.6360 hn        1 MOL      0.291829
     69 H29        -7.9020   -1.0310   -2.9120 h1        1 MOL      0.072677
     70 H30        -6.0010   -0.7190   -4.1760 hc        1 MOL      0.047683
     71 H31        -5.9750   -2.3930   -3.6850 hc        1 MOL      0.047683
     72 N7         -6.7430   -2.5060   -0.1920 n         1 MOL     -0.053796
     73 C23        -6.8310   -3.6220    0.8310 c3        1 MOL     -0.298716
     74 C24        -5.5190   -4.3500    1.0050 c         1 MOL      0.728942
     75 O13        -5.5110   -5.4790    1.4590 o         1 MOL     -0.617994
     76 H32        -6.4030   -1.6430    0.2040 hn        1 MOL      0.182179
     77 H33        -7.5050   -4.3940    0.4540 h1        1 MOL      0.118239
     78 H34        -7.1540   -3.2110    1.7890 h1        1 MOL      0.118239
     79 N8         -4.3920   -3.7940    0.5750 n         1 MOL     -0.629142
     80 C25        -3.0990   -4.5180    0.3460 c3        1 MOL      0.054059
     81 C26        -1.9330   -3.5440    0.6280 c         1 MOL      0.616052
     82 O14        -2.0090   -2.3500    0.3720 o         1 MOL     -0.636243
     83 C27        -2.9860   -4.9490   -1.1220 c3        1 MOL      0.459890
     84 C28        -3.1530   -6.4530   -1.3870 c3        1 MOL     -0.392313
     85 O15        -3.8600   -4.3070   -1.9670 oh        1 MOL     -0.574200
     86 H35        -4.5260   -2.8760    0.1750 hn        1 MOL      0.446450
     87 H36        -2.9740   -5.4090    0.9650 h1        1 MOL      0.063308
     88 H37        -1.9460   -4.7690   -1.4190 h1        1 MOL     -0.087874
     89 H38        -3.6340   -3.3820   -1.8950 ho        1 MOL      0.364452
     90 H39        -2.9180   -6.7720   -2.4010 hc        1 MOL      0.096599
     91 H40        -2.5320   -7.0420   -0.7250 hc        1 MOL      0.096599
     92 H41        -4.1580   -6.7880   -1.1030 hc        1 MOL      0.096599
     93 N9         -0.8070   -4.0620    1.1910 n         1 MOL     -0.670760
     94 C29         0.4760   -3.3220    1.5760 c3        1 MOL      0.119813
     95 C30         1.6540   -3.8550    0.6830 c         1 MOL      0.459762
     96 O16         1.9800   -5.0400    0.7110 o         1 MOL     -0.572722
     97 C31         0.7750   -3.5670    3.0630 c3        1 MOL      0.040111
     98 C32        -0.3090   -3.3620    4.0310 c3        1 MOL     -0.090392
     99 C33         2.0520   -2.9300    3.6330 c3        1 MOL     -0.434630
    100 C34        -1.0800   -2.0830    3.9070 c3        1 MOL      0.082180
    101 H42        -0.9950   -4.9990    1.5310 hn        1 MOL      0.329301
    102 H43         0.3430   -2.2670    1.3310 h1        1 MOL      0.181768
    103 H44         0.8880   -4.6420    3.1810 hc        1 MOL      0.030927
    104 H45         0.1050   -3.4010    5.0310 hc        1 MOL      0.040969
    105 H46        -0.9960   -4.2050    3.9460 hc        1 MOL      0.040969
    106 H47         2.5430   -3.5780    4.3710 hc        1 MOL      0.106521
    107 H48         2.7980   -2.8490    2.8410 hc        1 MOL      0.106521
    108 H49         1.9680   -1.9730    4.1540 hc        1 MOL      0.106521
    109 H50        -1.7670   -2.0990    3.0520 hc        1 MOL     -0.024969
    110 H51        -1.7170   -1.9690    4.7790 hc        1 MOL     -0.024969
    111 H52        -0.4290   -1.2250    3.7500 hc        1 MOL     -0.024969
    112 N10         2.2150   -2.9560   -0.0790 n         1 MOL     -0.105332
    113 C35         3.3530   -3.1640   -1.0400 c3        1 MOL     -0.065738
    114 C36         4.6310   -2.6800   -0.2180 c         1 MOL      0.176254
    115 O17         4.5480   -1.9450    0.7650 o         1 MOL     -0.155189
    116 C37         3.2740   -2.1830   -2.1680 c3        1 MOL      0.250523
    117 C38         2.0970   -2.5780   -3.1080 c3        1 MOL     -0.456934
    118 O18         3.1530   -0.7870   -1.8410 oh        1 MOL     -0.515860
    119 H53         1.9360   -1.9900    0.0190 hn        1 MOL      0.112112
    120 H54         3.4390   -4.1820   -1.4320 h1        1 MOL      0.101573
    121 H55         4.2090   -2.3500   -2.7080 h1        1 MOL      0.015620
    122 H56         2.2680   -0.6110   -1.5170 ho        1 MOL      0.289325
    123 H57         2.1670   -2.1720   -4.1220 hc        1 MOL      0.129448
    124 H58         2.0380   -3.6610   -3.1500 hc        1 MOL      0.129448
    125 H59         1.2210   -2.0690   -2.7150 hc        1 MOL      0.129448
    126 N11         5.7730   -3.0140   -0.8110 n         1 MOL     -0.056247
    127 C39         7.0690   -2.6960   -0.2010 c3        1 MOL     -0.631157
    128 C40         7.3090   -1.1800    0.0890 c         1 MOL      0.604386
    129 O19         7.8400   -0.9170    1.1650 o         1 MOL     -0.523486
    130 C41         8.1880   -3.1910   -1.1050 c3        1 MOL      0.499677
    131 C42         8.3700   -4.7320   -0.9330 c3        1 MOL     -0.373778
    132 O20         8.0110   -2.7890   -2.4270 oh        1 MOL     -0.745938
    133 H60         5.7670   -3.5910   -1.6360 hn        1 MOL      0.225066
    134 H61         7.0100   -3.1690    0.7800 h1        1 MOL      0.264120
    135 H62         9.1480   -2.7420   -0.8760 h1        1 MOL      0.046360
    136 H63         8.0250   -3.5040   -3.0650 ho        1 MOL      0.447607
    137 H64         8.8560   -5.0830   -1.8470 hc        1 MOL      0.102004
    138 H65         8.9720   -4.9990   -0.0670 hc        1 MOL      0.102004
    139 H66         7.3730   -5.1640   -0.8090 hc        1 MOL      0.102004
    140 N12         6.6600   -0.3100   -0.6680 n         1 MOL     -0.367788
    141 C43         6.5600    1.1500   -0.4510 c3        1 MOL     -0.043280
    142 C44         5.7420    1.6670    0.6940 c         1 MOL      0.347723
    143 O21         5.8380    2.8500    1.1360 o         1 MOL     -0.552346
    144 C45         6.2300    1.7830   -1.7930 c3        1 MOL     -0.058516
    145 C46         7.0870    1.2110   -2.9440 c3        1 MOL      0.063939
    146 C47         7.3120    2.2420   -4.0050 c3        1 MOL     -0.109653
    147 C48         8.0940    1.5630   -5.1480 c3        1 MOL      0.038160
    148 N13         8.2650    2.4180   -6.2860 n4        1 MOL     -0.115325
    149 H67         6.1280   -0.6200   -1.4650 hn        1 MOL      0.250659
    150 H68         7.5980    1.4430   -0.2470 h1        1 MOL      0.103426
    151 H69         6.3630    2.8600   -1.6930 hc        1 MOL      0.049609
    152 H70         5.2000    1.5750   -2.0780 hc        1 MOL      0.049609
    153 H71         6.6250    0.3260   -3.3700 hc        1 MOL      0.038412
    154 H72         8.1110    1.0490   -2.5910 hc        1 MOL      0.038412
    155 H73         7.8470    3.1170   -3.6320 hc        1 MOL      0.042210
    156 H74         6.2960    2.5110   -4.3010 hc        1 MOL      0.042210
    157 H75         7.4830    0.6930   -5.3760 hx        1 MOL      0.066134
    158 H76         9.0840    1.2420   -4.8350 hx        1 MOL      0.066134
    159 H77         8.4350    1.9700   -7.1690 hn        1 MOL      0.242719
    160 H78         7.4590    3.0200   -6.3730 hn        1 MOL      0.242719
    161 H79         9.0470    3.0260   -6.1060 hn        1 MOL      0.242719
    162 N14         4.8920    0.8150    1.2660 n         1 MOL     -0.096357
    163 C49         3.9350    1.1410    2.3330 c3        1 MOL     -0.017273
    164 C50         4.3910    0.3800    3.6120 c         1 MOL      0.400145
    165 O22         4.1640    0.7360    4.7430 o         1 MOL     -0.515569
    166 C51         2.5940    0.5990    1.8760 c3        1 MOL      0.079697
    167 C52         2.0530    1.2790    0.6010 c3        1 MOL     -0.006215
    168 C53         0.7560    0.5560    0.1340 c         1 MOL      0.739935
    169 O23         0.9250   -0.5890   -0.3790 o         1 MOL     -0.766679
    170 O24        -0.3080    1.0670    0.2350 o         1 MOL     -0.766679
    171 H80         4.8080   -0.0970    0.8610 hn        1 MOL      0.112723
    172 H81         3.8190    2.1880    2.6020 h1        1 MOL      0.076627
    173 H82         1.8030    0.8980    2.5720 hc        1 MOL      0.035085
    174 H83         2.5680   -0.4870    1.7710 hc        1 MOL      0.035085
    175 H84         2.7560    1.1840   -0.2270 hc        1 MOL     -0.041166
    176 H85         1.9390    2.3530    0.7560 hc        1 MOL     -0.041166
    177 N15         5.1490   -0.7020    3.3590 n         1 MOL     -0.113594
    178 C54         5.7620   -1.4860    4.4910 c3        1 MOL     -0.228060
    179 H86         5.7430   -2.5480    4.2490 h1        1 MOL      0.099306
    180 H87         6.7930   -1.1660    4.6380 h1        1 MOL      0.099306
    181 H88         5.1930   -1.3120    5.4040 h1        1 MOL      0.099306
    182 H89         5.2260   -1.0460    2.4080 hn        1 MOL      0.082597
    183 Ca1        -1.9990   -0.0500   -1.3430 Ca        1 MOL      1.784769
    184 O25        -1.6980   -2.2120   -2.8970 oh        1 MOL     -0.810784
    185 H90        -1.6930   -3.1670   -2.8580 ho        1 MOL      0.385220
    186 H91        -1.8870   -2.0120   -3.8090 ho        1 MOL      0.385220
    187 O26        -0.2280    0.6280   -3.2100 oh        1 MOL     -0.810784
    188 H92        -0.4160    1.4840   -3.5990 ho        1 MOL      0.385220
    189 H93         0.7220    0.6080   -3.1240 ho        1 MOL      0.385220
@<TRIPOS>BOND
     1    1    2 1   
     2    1    4 1   
     3    1    5 1   
     4    1    6 1   
     5    2    3 2   
     6    2    7 1   
     7    7    8 1   
     8    7   15 1   
     9    8    9 1   
    10    8   11 1   
    11    8   16 1   
    12    9   10 2   
    13    9   19 1   
    14   11   12 1   
    15   11   17 1   
    16   11   18 1   
    17   12   13 1   
    18   12   14 1   
    19   19   20 1   
    20   19   28 1   
    21   20   21 1   
    22   20   23 1   
    23   20   29 1   
    24   21   22 2   
    25   21   41 1   
    26   23   24 1   
    27   23   30 1   
    28   23   31 1   
    29   24   25 1   
    30   24   32 1   
    31   24   33 1   
    32   25   26 1   
    33   25   34 1   
    34   25   35 1   
    35   26   27 1   
    36   26   36 1   
    37   26   37 1   
    38   27   38 1   
    39   27   39 1   
    40   27   40 1   
    41   41   42 1   
    42   41   49 1   
    43   42   43 1   
    44   42   45 1   
    45   42   50 1   
    46   43   44 2   
    47   43   53 1   
    48   45   46 1   
    49   45   51 1   
    50   45   52 1   
    51   46   47 1   
    52   46   48 1   
    53   53   54 1   
    54   53   57 1   
    55   54   55 1   
    56   54   58 1   
    57   54   59 1   
    58   55   56 2   
    59   55   60 1   
    60   60   61 1   
    61   60   68 1   
    62   61   62 1   
    63   61   64 1   
    64   61   69 1   
    65   62   63 2   
    66   62   72 1   
    67   64   65 1   
    68   64   70 1   
    69   64   71 1   
    70   65   66 1   
    71   65   67 1   
    72   72   73 1   
    73   72   76 1   
    74   73   74 1   
    75   73   77 1   
    76   73   78 1   
    77   74   75 2   
    78   74   79 1   
    79   79   80 1   
    80   79   86 1   
    81   80   81 1   
    82   80   83 1   
    83   80   87 1   
    84   81   82 2   
    85   81   93 1   
    86   83   84 1   
    87   83   85 1   
    88   83   88 1   
    89   84   90 1   
    90   84   91 1   
    91   84   92 1   
    92   85   89 1   
    93   93   94 1   
    94   93  101 1   
    95   94   95 1   
    96   94   97 1   
    97   94  102 1   
    98   95   96 2   
    99   95  112 1   
   100   97   98 1   
   101   97   99 1   
   102   97  103 1   
   103   98  100 1   
   104   98  104 1   
   105   98  105 1   
   106   99  106 1   
   107   99  107 1   
   108   99  108 1   
   109  100  109 1   
   110  100  110 1   
   111  100  111 1   
   112  112  113 1   
   113  112  119 1   
   114  113  114 1   
   115  113  116 1   
   116  113  120 1   
   117  114  115 2   
   118  114  126 1   
   119  116  117 1   
   120  116  118 1   
   121  116  121 1   
   122  117  123 1   
   123  117  124 1   
   124  117  125 1   
   125  118  122 1   
   126  126  127 1   
   127  126  133 1   
   128  127  128 1   
   129  127  130 1   
   130  127  134 1   
   131  128  129 2   
   132  128  140 1   
   133  130  131 1   
   134  130  132 1   
   135  130  135 1   
   136  131  137 1   
   137  131  138 1   
   138  131  139 1   
   139  132  136 1   
   140  140  141 1   
   141  140  149 1   
   142  141  142 1   
   143  141  144 1   
   144  141  150 1   
   145  142  143 2   
   146  142  162 1   
   147  144  145 1   
   148  144  151 1   
   149  144  152 1   
   150  145  146 1   
   151  145  153 1   
   152  145  154 1   
   153  146  147 1   
   154  146  155 1   
   155  146  156 1   
   156  147  148 1   
   157  147  157 1   
   158  147  158 1   
   159  148  159 1   
   160  148  160 1   
   161  148  161 1   
   162  162  163 1   
   163  162  171 1   
   164  163  164 1   
   165  163  166 1   
   166  163  172 1   
   167  164  165 2   
   168  164  177 1   
   169  166  167 1   
   170  166  173 1   
   171  166  174 1   
   172  167  168 1   
   173  167  175 1   
   174  167  176 1   
   175  168  169 1   
   176  168  170 1   
   177  177  178 1   
   178  177  182 1   
   179  178  179 1   
   180  178  180 1   
   181  178  181 1   
   182  184  185 1   
   183  184  186 1   
   184  187  188 1   
   185  187  189 1   
@<TRIPOS>SUBSTRUCTURE
     1 MOL         1 TEMP              0 ****  ****    0 ROOT
