@<TRIPOS>MOLECULE
MOL
  189   185     1     0     0
SMALL
resp


@<TRIPOS>ATOM
      1 C1         -0.2190    3.8620    4.7590 c3        1 MOL     -0.394901
      2 C2         -0.6480    3.5620    3.3210 c         1 MOL      0.733280
      3 O1          0.1820    3.8370    2.4420 o         1 MOL     -0.568977
      4 H1         -1.0220    3.5840    5.4420 hc        1 MOL      0.099881
      5 H2          0.6760    3.2890    4.9990 hc        1 MOL      0.099881
      6 H3         -0.0070    4.9260    4.8620 hc        1 MOL      0.099881
      7 N1         -1.7950    2.9080    3.1980 n         1 MOL     -0.665937
      8 C3         -2.3300    2.1760    2.0370 c3        1 MOL      0.466793
      9 C4         -2.8580    3.1940    0.9190 c         1 MOL      0.241040
     10 O2         -4.0390    3.4910    0.7990 o         1 MOL     -0.451512
     11 C5         -3.4320    1.1840    2.4830 c3        1 MOL     -0.244584
     12 C6         -4.1430    0.2780    1.4320 c         1 MOL      0.824179
     13 O3         -5.1860   -0.3760    1.5180 o         1 MOL     -0.714417
     14 O4         -3.5720    0.0920    0.3060 o         1 MOL     -0.714417
     15 H4         -2.2630    2.6190    4.0540 hn        1 MOL      0.331161
     16 H5         -1.5010    1.5770    1.6680 h1        1 MOL     -0.073491
     17 H6         -4.1620    1.7820    3.0310 hc        1 MOL      0.032658
     18 H7         -2.9080    0.4860    3.1390 hc        1 MOL      0.032658
     19 N2         -1.9620    3.9070    0.2360 n         1 MOL      0.046737
     20 C7         -2.1980    5.0560   -0.6560 c3        1 MOL     -0.238209
     21 C8         -3.1550    4.8170   -1.8630 c         1 MOL      0.457656
     22 O5         -3.4700    5.7670   -2.5950 o         1 MOL     -0.557385
     23 C9         -0.8850    5.6290   -1.2010 c3        1 MOL      0.092447
     24 C10         0.1610    5.9770   -0.1590 c3        1 MOL      0.016458
     25 C11        -0.2890    6.7680    1.0450 c3        1 MOL     -0.046920
     26 C12         0.9100    7.5570    1.7120 c3        1 MOL      0.090885
     27 N3          0.5100    8.2650    2.9280 n4        1 MOL     -0.324942
     28 H8         -1.0060    3.7330    0.5060 hn        1 MOL      0.063326
     29 H9         -2.7430    5.7890   -0.0520 h1        1 MOL      0.104159
     30 H10        -1.1730    6.4460   -1.8610 hc        1 MOL      0.024511
     31 H11        -0.4970    4.8710   -1.8900 hc        1 MOL      0.024511
     32 H12         0.8350    6.6180   -0.7310 hc        1 MOL      0.009331
     33 H13         0.6640    5.0560    0.1220 hc        1 MOL      0.009331
     34 H14        -0.7700    6.1320    1.7800 hc        1 MOL      0.011938
     35 H15        -1.0150    7.5350    0.7750 hc        1 MOL      0.011938
     36 H16         1.3420    8.2710    1.0230 hx        1 MOL      0.070584
     37 H17         1.7250    6.8930    2.0180 hx        1 MOL      0.070584
     38 H18         1.2060    8.9400    3.2090 hn        1 MOL      0.312780
     39 H19        -0.3990    8.6780    2.7820 hn        1 MOL      0.312780
     40 H20         0.4160    7.5710    3.6590 hn        1 MOL      0.312780
     41 N4         -3.4750    3.5800   -2.2270 n         1 MOL     -0.152992
     42 C13        -4.5800    3.2580   -3.0970 c3        1 MOL      0.150650
     43 C14        -5.8220    2.6970   -2.4000 c         1 MOL      0.265517
     44 O6         -6.9290    2.7450   -3.0210 o         1 MOL     -0.526170
     45 C15        -4.0920    2.3720   -4.2570 c3        1 MOL     -0.374641
     46 C16        -3.0560    1.3260   -3.8510 c         1 MOL      0.762443
     47 O7         -2.0250    1.1610   -4.5510 o         1 MOL     -0.693744
     48 O8         -3.1810    0.6410   -2.8130 o         1 MOL     -0.693744
     49 H21        -3.0250    2.8710   -1.6710 hn        1 MOL      0.166980
     50 H22        -4.8720    4.1810   -3.6010 h1        1 MOL      0.088542
     51 H23        -3.5770    3.0550   -4.9360 hc        1 MOL      0.105843
     52 H24        -4.9380    1.9580   -4.8030 hc        1 MOL      0.105843
     53 N5         -5.7290    2.1680   -1.1910 n         1 MOL      0.082988
     54 C17        -6.8730    1.7100   -0.3850 c3        1 MOL     -0.140238
     55 C18        -7.2880    0.3180   -0.8560 c         1 MOL      0.479121
     56 O9         -8.5110   -0.0020   -1.0100 o         1 MOL     -0.574949
     57 H25        -4.8340    2.1480   -0.7190 hn        1 MOL     -0.121895
     58 H26        -7.7290    2.3890   -0.4350 h1        1 MOL      0.098659
     59 H27        -6.5710    1.6270    0.6570 h1        1 MOL      0.098659
     60 N6         -6.3160   -0.5570   -1.2050 n         1 MOL     -0.104678
     61 C19        -6.7660   -1.8880   -1.6410 c3        1 MOL     -0.040620
     62 C20        -7.0770   -2.9130   -0.5270 c         1 MOL      0.353485
     63 O10        -7.4680   -4.0530   -0.7750 o         1 MOL     -0.522411
     64 C21        -5.7490   -2.6010   -2.5170 c3        1 MOL     -0.256395
     65 C22        -4.2990   -2.6830   -2.1590 c         1 MOL      0.793248
     66 O11        -3.4740   -3.0280   -3.0130 o         1 MOL     -0.687844
     67 O12        -3.8900   -2.4690   -0.9820 o         1 MOL     -0.687844
     68 H28        -5.3610   -0.4150   -0.9390 hn        1 MOL      0.075167
     69 H29        -7.6740   -1.7880   -2.2410 h1        1 MOL      0.139489
     70 H30        -5.8520   -2.0660   -3.4560 hc        1 MOL      0.079335
     71 H31        -6.1100   -3.5980   -2.7380 hc        1 MOL      0.079335
     72 N7         -6.6200   -2.5860    0.7010 n         1 MOL     -0.167022
     73 C23        -6.6060   -3.5040    1.8790 c3        1 MOL     -0.169466
     74 C24        -5.2520   -4.1690    2.1070 c         1 MOL      0.622644
     75 O13        -5.2450   -5.1250    2.8600 o         1 MOL     -0.584073
     76 H32        -6.1850   -1.6840    0.7420 hn        1 MOL      0.204250
     77 H33        -7.2420   -4.3870    1.7820 h1        1 MOL      0.097445
     78 H34        -6.9120   -2.9760    2.7790 h1        1 MOL      0.097445
     79 N8         -4.1560   -3.7010    1.5120 n         1 MOL     -0.436038
     80 C25        -2.7950   -4.2860    1.8330 c3        1 MOL     -0.210690
     81 C26        -1.6860   -3.2520    1.6230 c         1 MOL      0.677488
     82 O14        -1.7820   -2.2510    0.9570 o         1 MOL     -0.681091
     83 C27        -2.4110   -5.4270    0.8250 c3        1 MOL      0.533018
     84 C28        -3.0930   -6.7530    1.1810 c3        1 MOL     -0.343975
     85 O15        -2.7470   -5.1140   -0.4540 oh        1 MOL     -0.586998
     86 H35        -4.1660   -2.9080    0.8800 hn        1 MOL      0.402699
     87 H36        -2.7810   -4.6670    2.8560 h1        1 MOL      0.109439
     88 H37        -1.3540   -5.5760    1.0410 h1        1 MOL     -0.053895
     89 H38        -3.2790   -4.3250   -0.3100 ho        1 MOL      0.361790
     90 H39        -2.5800   -7.6040    0.7290 hc        1 MOL      0.074466
     91 H40        -2.9510   -6.9000    2.2510 hc        1 MOL      0.074466
     92 H41        -4.1790   -6.7120    1.0760 hc        1 MOL      0.074466
     93 N9         -0.6500   -3.4170    2.4820 n         1 MOL     -0.486363
     94 C29         0.4460   -2.4820    2.4870 c3        1 MOL     -0.062765
     95 C30         1.6850   -3.1650    1.7520 c         1 MOL      0.441404
     96 O16         1.9880   -4.3070    2.1900 o         1 MOL     -0.562765
     97 C31         0.8450   -1.9980    3.8530 c3        1 MOL      0.333537
     98 C32        -0.3390   -1.2140    4.4470 c3        1 MOL      0.181043
     99 C33         2.1420   -1.1950    3.8360 c3        1 MOL     -0.489528
    100 C34        -0.1660   -0.8220    5.9110 c3        1 MOL     -0.192830
    101 H42        -0.6740   -4.2120    3.1120 hn        1 MOL      0.289033
    102 H43         0.2480   -1.5490    1.9540 h1        1 MOL      0.106755
    103 H44         0.9550   -2.7590    4.6280 hc        1 MOL     -0.027441
    104 H45        -1.1290   -1.9590    4.4650 hc        1 MOL     -0.046279
    105 H46        -0.5550   -0.3610    3.7980 hc        1 MOL     -0.046279
    106 H47         2.0860   -0.5000    3.0030 hc        1 MOL      0.093423
    107 H48         2.2960   -0.6320    4.7570 hc        1 MOL      0.093423
    108 H49         3.0250   -1.8170    3.6530 hc        1 MOL      0.093423
    109 H50        -1.0400   -0.3390    6.3670 hc        1 MOL      0.036771
    110 H51        -0.0150   -1.7850    6.3990 hc        1 MOL      0.036771
    111 H52         0.6430   -0.1190    6.0950 hc        1 MOL      0.036771
    112 N10         2.3210   -2.4970    0.8060 n         1 MOL     -0.107813
    113 C35         3.5780   -2.9820    0.1420 c3        1 MOL     -0.068915
    114 C36         4.7770   -2.2970    0.7040 c         1 MOL      0.435729
    115 O17         4.7590   -1.3720    1.5300 o         1 MOL     -0.411060
    116 C37         3.4520   -2.6010   -1.3370 c3        1 MOL      0.280423
    117 C38         2.3310   -3.4550   -2.0820 c3        1 MOL     -0.328286
    118 O18         3.1010   -1.2390   -1.4980 oh        1 MOL     -0.612709
    119 H53         2.0120   -1.5630    0.5670 hn        1 MOL      0.104128
    120 H54         3.5940   -4.0710    0.2000 h1        1 MOL      0.086508
    121 H55         4.4140   -2.8100   -1.8030 h1        1 MOL     -0.014382
    122 H56         2.1700   -1.1340   -1.2590 ho        1 MOL      0.389271
    123 H57         1.7450   -2.8530   -2.7780 hc        1 MOL      0.093474
    124 H58         2.7510   -4.2940   -2.6290 hc        1 MOL      0.093474
    125 H59         1.6950   -3.9870   -1.3720 hc        1 MOL      0.093474
    126 N11         5.9840   -2.7030    0.3110 n         1 MOL     -0.353389
    127 C39         7.2730   -1.9820    0.7100 c3        1 MOL     -0.056535
    128 C40         7.3380   -0.5630    0.4080 c         1 MOL      0.140609
    129 O19         7.7640    0.2750    1.2480 o         1 MOL     -0.449209
    130 C41         8.5430   -2.6980    0.1580 c3        1 MOL      0.248240
    131 C42         8.7340   -4.1330    0.6430 c3        1 MOL     -0.399310
    132 O20         8.4520   -2.7060   -1.2170 oh        1 MOL     -0.637373
    133 H60         5.9980   -3.5780   -0.1980 hn        1 MOL      0.250693
    134 H61         7.2900   -1.9100    1.7920 h1        1 MOL      0.154847
    135 H62         9.4380   -2.1070    0.3780 h1        1 MOL      0.073618
    136 H63         9.1600   -3.2130   -1.6050 ho        1 MOL      0.356844
    137 H64         7.7990   -4.6730    0.5510 hc        1 MOL      0.125090
    138 H65         9.4580   -4.7050    0.0580 hc        1 MOL      0.125090
    139 H66         8.9100   -4.1810    1.7170 hc        1 MOL      0.125090
    140 N12         6.9350   -0.1800   -0.8000 n         1 MOL      0.124089
    141 C43         6.9330    1.1840   -1.2790 c3        1 MOL     -0.139215
    142 C44         5.8270    2.0630   -0.7240 c         1 MOL      0.385366
    143 O21         6.0540    3.2450   -0.3850 o         1 MOL     -0.500844
    144 C45         6.7730    1.3200   -2.8040 c3        1 MOL     -0.249408
    145 C46         7.4010    0.2680   -3.7210 c3        1 MOL      0.120109
    146 C47         8.9120    0.2400   -3.6600 c3        1 MOL      0.049814
    147 C48         9.5210   -0.7670   -4.6980 c3        1 MOL     -0.136093
    148 N13         9.3560   -2.1940   -4.3580 n4        1 MOL     -0.134789
    149 H67         6.6090   -0.9680   -1.3390 hn        1 MOL      0.189998
    150 H68         7.7920    1.7080   -0.8590 h1        1 MOL      0.103157
    151 H69         7.1180    2.2900   -3.1660 hc        1 MOL      0.113580
    152 H70         5.7050    1.3530   -3.0120 hc        1 MOL      0.113580
    153 H71         7.0790    0.4800   -4.7480 hc        1 MOL     -0.011257
    154 H72         6.9600   -0.6870   -3.4180 hc        1 MOL     -0.011257
    155 H73         9.4240   -0.0380   -2.7350 hc        1 MOL      0.034637
    156 H74         9.2850    1.2300   -3.9350 hc        1 MOL      0.034637
    157 H75        10.5940   -0.6510   -4.8320 hx        1 MOL      0.109634
    158 H76         9.0080   -0.7210   -5.6560 hx        1 MOL      0.109634
    159 H77         8.4030   -2.5290   -4.4530 hn        1 MOL      0.227307
    160 H78         9.9480   -2.7800   -4.9460 hn        1 MOL      0.227307
    161 H79         9.6140   -2.3380   -3.3910 hn        1 MOL      0.227307
    162 N14         4.6300    1.5600   -0.2580 n         1 MOL     -0.118744
    163 C49         3.7370    2.3290    0.6150 c3        1 MOL     -0.151871
    164 C50         4.2710    2.6420    2.0320 c         1 MOL      0.517804
    165 O22         3.9490    3.6520    2.6180 o         1 MOL     -0.569842
    166 C51         2.4290    1.6110    0.7470 c3        1 MOL      0.092074
    167 C52         1.7080    1.6530   -0.6150 c3        1 MOL      0.086317
    168 C53         0.5260    0.7180   -0.7340 c         1 MOL      0.597265
    169 O23        -0.5800    1.2340   -1.0750 o         1 MOL     -0.673215
    170 O24         0.6490   -0.5430   -0.6470 o         1 MOL     -0.673215
    171 H80         4.4100    0.6000   -0.4490 hn        1 MOL      0.098394
    172 H81         3.4110    3.2360    0.1130 h1        1 MOL      0.068549
    173 H82         1.9140    2.1520    1.5450 hc        1 MOL      0.005672
    174 H83         2.6930    0.6220    1.1100 hc        1 MOL      0.005672
    175 H84         2.3670    1.5710   -1.4790 hc        1 MOL     -0.010938
    176 H85         1.2940    2.6530   -0.7210 hc        1 MOL     -0.010938
    177 N15         5.1560    1.8320    2.5830 n         1 MOL     -0.150427
    178 C54         5.9590    2.0870    3.8170 c3        1 MOL     -0.246427
    179 H86         5.3480    1.8830    4.6960 h1        1 MOL      0.108068
    180 H87         6.8340    1.4360    3.8230 h1        1 MOL      0.108068
    181 H88         6.2810    3.1280    3.8330 h1        1 MOL      0.108068
    182 H89         5.3900    1.0470    1.9970 hn        1 MOL      0.187981
    183 Ca1        -1.8080   -0.9700   -1.2720 Ca        1 MOL      1.757617
    184 O25        -0.8780   -3.4120   -1.9430 oh        1 MOL     -0.895433
    185 H90        -0.4920   -3.5920   -2.7980 ho        1 MOL      0.412489
    186 H91        -1.6030   -4.0430   -1.8730 ho        1 MOL      0.412489
    187 O26        -0.6320   -0.8390   -3.6260 oh        1 MOL     -0.895433
    188 H92        -1.1560   -0.2570   -4.1720 ho        1 MOL      0.412489
    189 H93         0.1760   -0.9680   -4.1230 ho        1 MOL      0.412489
@<TRIPOS>BOND
     1    1    2 1   
     2    1    4 1   
     3    1    5 1   
     4    1    6 1   
     5    2    3 2   
     6    2    7 1   
     7    7    8 1   
     8    7   15 1   
     9    8    9 1   
    10    8   11 1   
    11    8   16 1   
    12    9   10 2   
    13    9   19 1   
    14   11   12 1   
    15   11   17 1   
    16   11   18 1   
    17   12   13 1   
    18   12   14 1   
    19   19   20 1   
    20   19   28 1   
    21   20   21 1   
    22   20   23 1   
    23   20   29 1   
    24   21   22 2   
    25   21   41 1   
    26   23   24 1   
    27   23   30 1   
    28   23   31 1   
    29   24   25 1   
    30   24   32 1   
    31   24   33 1   
    32   25   26 1   
    33   25   34 1   
    34   25   35 1   
    35   26   27 1   
    36   26   36 1   
    37   26   37 1   
    38   27   38 1   
    39   27   39 1   
    40   27   40 1   
    41   41   42 1   
    42   41   49 1   
    43   42   43 1   
    44   42   45 1   
    45   42   50 1   
    46   43   44 2   
    47   43   53 1   
    48   45   46 1   
    49   45   51 1   
    50   45   52 1   
    51   46   47 1   
    52   46   48 1   
    53   53   54 1   
    54   53   57 1   
    55   54   55 1   
    56   54   58 1   
    57   54   59 1   
    58   55   56 2   
    59   55   60 1   
    60   60   61 1   
    61   60   68 1   
    62   61   62 1   
    63   61   64 1   
    64   61   69 1   
    65   62   63 2   
    66   62   72 1   
    67   64   65 1   
    68   64   70 1   
    69   64   71 1   
    70   65   66 1   
    71   65   67 1   
    72   72   73 1   
    73   72   76 1   
    74   73   74 1   
    75   73   77 1   
    76   73   78 1   
    77   74   75 2   
    78   74   79 1   
    79   79   80 1   
    80   79   86 1   
    81   80   81 1   
    82   80   83 1   
    83   80   87 1   
    84   81   82 2   
    85   81   93 1   
    86   83   84 1   
    87   83   85 1   
    88   83   88 1   
    89   84   90 1   
    90   84   91 1   
    91   84   92 1   
    92   85   89 1   
    93   93   94 1   
    94   93  101 1   
    95   94   95 1   
    96   94   97 1   
    97   94  102 1   
    98   95   96 2   
    99   95  112 1   
   100   97   98 1   
   101   97   99 1   
   102   97  103 1   
   103   98  100 1   
   104   98  104 1   
   105   98  105 1   
   106   99  106 1   
   107   99  107 1   
   108   99  108 1   
   109  100  109 1   
   110  100  110 1   
   111  100  111 1   
   112  112  113 1   
   113  112  119 1   
   114  113  114 1   
   115  113  116 1   
   116  113  120 1   
   117  114  115 2   
   118  114  126 1   
   119  116  117 1   
   120  116  118 1   
   121  116  121 1   
   122  117  123 1   
   123  117  124 1   
   124  117  125 1   
   125  118  122 1   
   126  126  127 1   
   127  126  133 1   
   128  127  128 1   
   129  127  130 1   
   130  127  134 1   
   131  128  129 2   
   132  128  140 1   
   133  130  131 1   
   134  130  132 1   
   135  130  135 1   
   136  131  137 1   
   137  131  138 1   
   138  131  139 1   
   139  132  136 1   
   140  140  141 1   
   141  140  149 1   
   142  141  142 1   
   143  141  144 1   
   144  141  150 1   
   145  142  143 2   
   146  142  162 1   
   147  144  145 1   
   148  144  151 1   
   149  144  152 1   
   150  145  146 1   
   151  145  153 1   
   152  145  154 1   
   153  146  147 1   
   154  146  155 1   
   155  146  156 1   
   156  147  148 1   
   157  147  157 1   
   158  147  158 1   
   159  148  159 1   
   160  148  160 1   
   161  148  161 1   
   162  162  163 1   
   163  162  171 1   
   164  163  164 1   
   165  163  166 1   
   166  163  172 1   
   167  164  165 2   
   168  164  177 1   
   169  166  167 1   
   170  166  173 1   
   171  166  174 1   
   172  167  168 1   
   173  167  175 1   
   174  167  176 1   
   175  168  169 1   
   176  168  170 1   
   177  177  178 1   
   178  177  182 1   
   179  178  179 1   
   180  178  180 1   
   181  178  181 1   
   182  184  185 1   
   183  184  186 1   
   184  187  188 1   
   185  187  189 1   
@<TRIPOS>SUBSTRUCTURE
     1 MOL         1 TEMP              0 ****  ****    0 ROOT
