@<TRIPOS>MOLECULE
MOL
  182   178     1     0     0
SMALL
resp


@<TRIPOS>ATOM
      1 C1         -1.0310   -2.6280    6.8120 c3        1 MOL     -0.296796
      2 C2         -0.9090   -2.2170    5.3300 c         1 MOL      0.760706
      3 O1         -1.8590   -1.9500    4.6580 o         1 MOL     -0.580392
      4 H1         -0.9510   -1.7420    7.4410 hc        1 MOL      0.075939
      5 H2         -1.9960   -3.1060    6.9790 hc        1 MOL      0.075939
      6 H3         -0.2310   -3.3250    7.0630 hc        1 MOL      0.075939
      7 N1          0.3360   -2.2720    4.7280 n         1 MOL     -0.663432
      8 C3          0.5280   -2.0370    3.2820 c3        1 MOL      0.206623
      9 C4          0.3390   -3.3710    2.5580 c         1 MOL      0.573791
     10 O2          0.7410   -4.4350    3.1010 o         1 MOL     -0.562325
     11 C5          2.0150   -1.6580    3.1770 c3        1 MOL     -0.587756
     12 C6          2.6640   -1.4600    1.8630 c         1 MOL      0.736001
     13 O3          2.1390   -1.6770    0.7450 o         1 MOL     -0.648948
     14 O4          3.8110   -0.9370    1.8590 o         1 MOL     -0.648948
     15 H4          1.0780   -2.6020    5.3300 hn        1 MOL      0.328453
     16 H5         -0.1210   -1.3190    2.7740 h1        1 MOL      0.023967
     17 H6          2.5730   -2.4940    3.5770 hc        1 MOL      0.172279
     18 H7          2.1290   -0.7340    3.7530 hc        1 MOL      0.172279
     19 N2         -0.2690   -3.3140    1.3610 n         1 MOL     -0.238013
     20 C7         -0.6330   -4.4790    0.5020 c3        1 MOL     -0.318961
     21 C8          0.4920   -5.2750   -0.1660 c         1 MOL      0.702204
     22 O5          0.2330   -6.4060   -0.4600 o         1 MOL     -0.601575
     23 C9         -1.5910   -3.9020   -0.5270 c3        1 MOL      0.140190
     24 C10        -2.4200   -4.9670   -1.3350 c3        1 MOL     -0.257276
     25 C11        -3.5310   -4.4220   -2.2230 c3        1 MOL      0.346689
     26 C12        -4.3740   -5.5380   -2.7670 c3        1 MOL     -0.136951
     27 N3         -5.3670   -5.0010   -3.7640 n4        1 MOL     -0.206002
     28 H8         -0.6700   -2.4150    1.1420 hn        1 MOL      0.101659
     29 H9         -1.1780   -5.2150    1.1030 h1        1 MOL      0.145492
     30 H10        -0.9780   -3.2620   -1.1530 hc        1 MOL      0.075412
     31 H11        -2.3580   -3.3090   -0.0320 hc        1 MOL      0.075412
     32 H12        -2.7920   -5.6660   -0.5930 hc        1 MOL      0.047036
     33 H13        -1.7940   -5.5390   -2.0110 hc        1 MOL      0.047036
     34 H14        -3.0500   -3.8460   -3.0150 hc        1 MOL     -0.073091
     35 H15        -4.1530   -3.7360   -1.6500 hc        1 MOL     -0.073091
     36 H16        -4.8340   -5.9580   -1.8710 hx        1 MOL      0.120739
     37 H17        -3.7800   -6.2520   -3.3280 hx        1 MOL      0.120739
     38 H18        -5.9350   -5.7490   -4.1310 hn        1 MOL      0.286905
     39 H19        -6.0320   -4.4560   -3.2360 hn        1 MOL      0.286905
     40 H20        -5.0660   -4.3790   -4.5010 hn        1 MOL      0.286905
     41 N4          1.6430   -4.7440   -0.1750 n         1 MOL     -0.372881
     42 C13         2.7680   -5.4280   -0.8150 c3        1 MOL     -0.034136
     43 C14         4.1680   -5.0710   -0.2470 c         1 MOL      0.428068
     44 O6          5.1430   -5.4120   -0.8460 o         1 MOL     -0.480542
     45 C15         2.7960   -5.1150   -2.2620 c3        1 MOL     -0.131582
     46 C16         2.7530   -3.6660   -2.7480 c         1 MOL      0.830011
     47 O7          2.7440   -2.7640   -1.8600 o         1 MOL     -0.752345
     48 O8          2.7620   -3.4630   -3.9830 o         1 MOL     -0.752345
     49 H21         1.6710   -3.7430   -0.0260 hn        1 MOL      0.198016
     50 H22         2.6230   -6.5040   -0.7800 h1        1 MOL      0.127418
     51 H23         1.8780   -5.5910   -2.6220 hc        1 MOL      0.023094
     52 H24         3.6400   -5.6030   -2.7550 hc        1 MOL      0.023094
     53 N5          4.2380   -4.3930    0.9080 n         1 MOL     -0.312151
     54 C17         5.5090   -3.8570    1.5890 c3        1 MOL     -0.000410
     55 C18         6.3160   -2.7860    0.7540 c         1 MOL      0.409964
     56 O9          7.5570   -2.8010    0.7890 o         1 MOL     -0.558809
     57 H25         3.3760   -4.2010    1.3860 hn        1 MOL      0.216085
     58 H26         6.1550   -4.7150    1.7570 h1        1 MOL      0.071554
     59 H27         5.2300   -3.4600    2.5730 h1        1 MOL      0.071554
     60 N6          5.7360   -1.9230   -0.0710 n         1 MOL     -0.108978
     61 C19         6.4600   -0.9200   -0.8200 c3        1 MOL     -0.060380
     62 C20         6.5980    0.4460   -0.0920 c         1 MOL      0.374774
     63 O10         7.4150    1.2620   -0.5270 o         1 MOL     -0.541894
     64 C21         5.7600   -0.8220   -2.1900 c3        1 MOL     -0.104224
     65 C22         4.7680    0.2450   -2.2270 c         1 MOL      0.634944
     66 N7          4.9390    1.0250   -3.1930 n         1 MOL     -0.837001
     67 O11         3.8990    0.3370   -1.4530 o         1 MOL     -0.657657
     68 H28         4.7430   -1.9100    0.0970 hn        1 MOL      0.158030
     69 H29         7.4620   -1.2490   -1.1070 h1        1 MOL      0.124875
     70 H30         5.2940   -1.7760   -2.4590 hc        1 MOL      0.073846
     71 H31         6.5520   -0.6630   -2.9180 hc        1 MOL      0.073846
     72 H32         5.7900    1.0690   -3.7460 hn        1 MOL      0.376531
     73 H33         4.2070    1.7050   -3.3600 hn        1 MOL      0.376531
     74 N8          5.8390    0.7040    0.9940 n         1 MOL     -0.004761
     75 C23         6.0520    1.8520    1.8580 c3        1 MOL     -0.388497
     76 C24         4.9930    2.8480    1.8200 c         1 MOL      0.647205
     77 O12         5.1520    3.9280    2.3280 o         1 MOL     -0.541126
     78 H34         5.0710    0.0840    1.2110 hn        1 MOL      0.103687
     79 H35         6.9840    2.3720    1.6530 h1        1 MOL      0.154554
     80 H36         6.0650    1.3870    2.8490 h1        1 MOL      0.154554
     81 N9          3.9140    2.5750    1.0360 n         1 MOL     -0.569623
     82 C25         2.8040    3.4620    0.7200 c3        1 MOL      0.644690
     83 C26         1.5450    2.6950    0.5900 c         1 MOL      0.046711
     84 O13         1.5670    1.4860    0.2780 o         1 MOL     -0.498568
     85 C27         3.1090    4.2850   -0.5960 c3        1 MOL     -0.022230
     86 C28         4.3610    5.1000   -0.6740 ca        1 MOL     -0.026528
     87 C29         4.4050    6.3760   -0.1730 ca        1 MOL     -0.103463
     88 C30         5.4370    4.6180   -1.4520 ca        1 MOL     -0.103463
     89 C31         5.5700    7.1760   -0.3640 ca        1 MOL     -0.259107
     90 C32         6.5430    5.4320   -1.7690 ca        1 MOL     -0.259107
     91 C33         6.6040    6.6860   -1.1700 ca        1 MOL      0.299278
     92 O14         7.6910    7.4750   -1.1870 oh        1 MOL     -0.475466
     93 H37         3.8740    1.6840    0.5700 hn        1 MOL      0.359890
     94 H38         2.7960    4.1390    1.5760 h1        1 MOL     -0.086596
     95 H39         2.2220    4.8920   -0.8230 hc        1 MOL     -0.006887
     96 H40         3.1380    3.6010   -1.4450 hc        1 MOL     -0.006887
     97 H41         3.5260    6.8290    0.2790 ha        1 MOL      0.109764
     98 H42         5.3930    3.5930   -1.8050 ha        1 MOL      0.109764
     99 H43         5.6510    8.1530    0.1050 ha        1 MOL      0.153181
    100 H44         7.3630    5.0700   -2.3720 ha        1 MOL      0.153181
    101 H45         8.4000    7.0550   -1.6750 ho        1 MOL      0.367440
    102 N10         0.4090    3.3390    0.8910 n         1 MOL     -0.157177
    103 C34        -0.8810    2.8140    0.8900 c3        1 MOL     -0.046662
    104 C35        -1.7850    3.8130    0.1290 c         1 MOL      0.479805
    105 O15        -1.5670    4.9980    0.0020 o         1 MOL     -0.524258
    106 C36        -1.2800    2.4330    2.3410 c3        1 MOL     -0.092218
    107 C37        -1.2640    3.6760    3.2770 c3        1 MOL     -0.184662
    108 C38        -0.4590    1.2310    2.8570 c3        1 MOL     -0.215840
    109 C39        -1.6530    3.3260    4.7800 c3        1 MOL     -0.109135
    110 H46         0.4550    4.3250    1.1110 hn        1 MOL      0.187268
    111 H47        -0.9730    1.8840    0.3440 h1        1 MOL      0.182436
    112 H48        -2.2900    2.0430    2.3010 hc        1 MOL      0.034828
    113 H49        -1.8540    4.5280    2.9520 hc        1 MOL      0.093366
    114 H50        -0.2540    4.0500    3.4890 hc        1 MOL      0.093366
    115 H51         0.6260    1.3210    2.9330 hc        1 MOL      0.104610
    116 H52        -0.7620    0.7380    3.7780 hc        1 MOL      0.104610
    117 H53        -0.5760    0.4550    2.1050 hc        1 MOL      0.104610
    118 H54        -1.6060    4.1880    5.4450 hc        1 MOL      0.037813
    119 H55        -2.6780    2.9550    4.8530 hc        1 MOL      0.037813
    120 H56        -0.9840    2.5740    5.1810 hc        1 MOL      0.037813
    121 N11        -2.9510    3.2580   -0.2190 n         1 MOL     -0.269018
    122 C40        -4.1050    3.9940   -0.8680 c3        1 MOL      0.010920
    123 C41        -5.3610    3.4610   -0.2700 c         1 MOL      0.487100
    124 O16        -5.4430    2.5350    0.5580 o         1 MOL     -0.437475
    125 C42        -4.0200    3.8350   -2.3880 c3        1 MOL     -0.014625
    126 O17        -4.5830    2.5920   -2.8450 oh        1 MOL     -0.564817
    127 H57        -3.0220    2.2790    0.0340 hn        1 MOL      0.186146
    128 H58        -4.0900    5.0680   -0.7030 h1        1 MOL      0.089661
    129 H59        -3.0500    4.0250   -2.8450 h1        1 MOL      0.087199
    130 H60        -4.6970    4.5920   -2.7880 h1        1 MOL      0.087199
    131 H61        -5.2670    2.7550   -3.5050 ho        1 MOL      0.396608
    132 N12        -6.4730    4.0010   -0.7800 n         1 MOL     -0.470488
    133 C43        -7.8830    3.6240   -0.4120 c3        1 MOL      0.131984
    134 C44        -8.2140    2.1510   -0.5620 c         1 MOL      0.436723
    135 O18        -8.8750    1.4780    0.1910 o         1 MOL     -0.481039
    136 C45        -8.7360    4.6170   -1.2370 c3        1 MOL     -0.349182
    137 H62        -6.3780    4.7740   -1.4100 hn        1 MOL      0.322268
    138 H63        -8.0820    3.8770    0.6250 h1        1 MOL      0.090421
    139 H64        -8.5010    5.6640   -1.0450 hc        1 MOL      0.102674
    140 H65        -8.4680    4.5150   -2.2900 hc        1 MOL      0.102674
    141 H66        -9.7800    4.3200   -1.0750 hc        1 MOL      0.102674
    142 N13        -7.6590    1.5590   -1.6000 n         1 MOL     -0.309079
    143 C46        -7.8090    0.1090   -1.8960 c3        1 MOL      0.029855
    144 C47        -7.2130   -0.7960   -0.7880 c         1 MOL      0.340820
    145 O19        -7.7740   -1.8560   -0.4340 o         1 MOL     -0.501893
    146 C48        -7.1660   -0.1350   -3.2520 c3        1 MOL     -0.253494
    147 H67        -7.1090    2.0990   -2.2480 hn        1 MOL      0.188041
    148 H68        -8.8690   -0.1240   -2.0410 h1        1 MOL      0.102847
    149 H69        -7.4560   -1.1170   -3.6300 hc        1 MOL      0.066211
    150 H70        -7.5290    0.5760   -4.0010 hc        1 MOL      0.066211
    151 H71        -6.0840   -0.0490   -3.1840 hc        1 MOL      0.066211
    152 N14        -6.0120   -0.3860   -0.3480 n         1 MOL     -0.054372
    153 C49        -5.1730   -1.0970    0.6600 c3        1 MOL     -0.450299
    154 C50        -5.7420   -0.7720    2.0190 c         1 MOL      0.676604
    155 O20        -5.7200   -1.5870    2.8610 o         1 MOL     -0.541514
    156 C51        -3.7910   -0.6040    0.5740 c3        1 MOL      0.112502
    157 C52        -3.2110   -0.7850   -0.9170 c3        1 MOL      0.841418
    158 C53        -1.7200   -0.4040   -0.9780 c         1 MOL      0.144024
    159 O21        -1.3660    0.2590   -2.0000 o         1 MOL     -0.612702
    160 O22        -0.9400   -0.8510   -0.1230 o         1 MOL     -0.612702
    161 H72        -5.6770    0.5550   -0.5160 hn        1 MOL      0.290441
    162 H73        -5.1660   -2.1760    0.5250 h1        1 MOL      0.159780
    163 H74        -3.1430   -1.2400    1.1830 hc        1 MOL     -0.008642
    164 H75        -3.7170    0.4730    0.7160 hc        1 MOL     -0.008642
    165 H76        -3.7890   -0.2860   -1.6850 hc        1 MOL     -0.273512
    166 H77        -3.4500   -1.8070   -1.2130 hc        1 MOL     -0.273512
    167 N15        -6.0570    0.5080    2.4040 n         1 MOL     -0.281872
    168 C54        -6.7600    0.8570    3.6480 c3        1 MOL     -0.339527
    169 H78        -6.2370    1.6760    4.1420 h1        1 MOL      0.133821
    170 H79        -7.7800    1.1650    3.4160 h1        1 MOL      0.133821
    171 H80        -6.7840   -0.0090    4.3090 h1        1 MOL      0.133821
    172 H81        -6.0060    1.2030    1.6640 hn        1 MOL      0.180192
    173 Ca1         1.2470   -0.4480   -1.4020 Ca        1 MOL      1.774004
    174 O23         1.9520   -0.4450   -3.9630 oh        1 MOL     -0.777739
    175 H82         2.2670   -1.2930   -4.2870 ho        1 MOL      0.378031
    176 H83         1.8950    0.0970   -4.7420 ho        1 MOL      0.378031
    177 O24         1.0910    2.1290   -2.5670 oh        1 MOL     -0.777739
    178 H84         0.3970    2.0260   -3.2120 ho        1 MOL      0.378031
    179 H85         1.7810    2.6070   -3.0150 ho        1 MOL      0.378031
    180 O25        -0.1210   -2.0380   -3.1630 oh        1 MOL     -0.777739
    181 H86         0.1330   -2.9410   -3.3450 ho        1 MOL      0.378031
    182 H87        -0.2830   -1.6550   -4.0260 ho        1 MOL      0.378031
@<TRIPOS>BOND
     1    1    2 1   
     2    1    4 1   
     3    1    5 1   
     4    1    6 1   
     5    2    3 2   
     6    2    7 1   
     7    7    8 1   
     8    7   15 1   
     9    8    9 1   
    10    8   11 1   
    11    8   16 1   
    12    9   10 2   
    13    9   19 1   
    14   11   12 1   
    15   11   17 1   
    16   11   18 1   
    17   12   13 1   
    18   12   14 1   
    19   19   20 1   
    20   19   28 1   
    21   20   21 1   
    22   20   23 1   
    23   20   29 1   
    24   21   22 2   
    25   21   41 1   
    26   23   24 1   
    27   23   30 1   
    28   23   31 1   
    29   24   25 1   
    30   24   32 1   
    31   24   33 1   
    32   25   26 1   
    33   25   34 1   
    34   25   35 1   
    35   26   27 1   
    36   26   36 1   
    37   26   37 1   
    38   27   38 1   
    39   27   39 1   
    40   27   40 1   
    41   41   42 1   
    42   41   49 1   
    43   42   43 1   
    44   42   45 1   
    45   42   50 1   
    46   43   44 2   
    47   43   53 1   
    48   45   46 1   
    49   45   51 1   
    50   45   52 1   
    51   46   47 1   
    52   46   48 1   
    53   53   54 1   
    54   53   57 1   
    55   54   55 1   
    56   54   58 1   
    57   54   59 1   
    58   55   56 2   
    59   55   60 1   
    60   60   61 1   
    61   60   68 1   
    62   61   62 1   
    63   61   64 1   
    64   61   69 1   
    65   62   63 2   
    66   62   74 1   
    67   64   65 1   
    68   64   70 1   
    69   64   71 1   
    70   65   66 1   
    71   65   67 2   
    72   66   72 1   
    73   66   73 1   
    74   74   75 1   
    75   74   78 1   
    76   75   76 1   
    77   75   79 1   
    78   75   80 1   
    79   76   77 2   
    80   76   81 1   
    81   81   82 1   
    82   81   93 1   
    83   82   83 1   
    84   82   85 1   
    85   82   94 1   
    86   83   84 2   
    87   83  102 1   
    88   85   86 1   
    89   85   95 1   
    90   85   96 1   
    91   86   87 ar  
    92   86   88 ar  
    93   87   89 ar  
    94   87   97 1   
    95   88   90 ar  
    96   88   98 1   
    97   89   91 ar  
    98   89   99 1   
    99   90   91 ar  
   100   90  100 1   
   101   91   92 1   
   102   92  101 1   
   103  102  103 1   
   104  102  110 1   
   105  103  104 1   
   106  103  106 1   
   107  103  111 1   
   108  104  105 2   
   109  104  121 1   
   110  106  107 1   
   111  106  108 1   
   112  106  112 1   
   113  107  109 1   
   114  107  113 1   
   115  107  114 1   
   116  108  115 1   
   117  108  116 1   
   118  108  117 1   
   119  109  118 1   
   120  109  119 1   
   121  109  120 1   
   122  121  122 1   
   123  121  127 1   
   124  122  123 1   
   125  122  125 1   
   126  122  128 1   
   127  123  124 2   
   128  123  132 1   
   129  125  126 1   
   130  125  129 1   
   131  125  130 1   
   132  126  131 1   
   133  132  133 1   
   134  132  137 1   
   135  133  134 1   
   136  133  136 1   
   137  133  138 1   
   138  134  135 2   
   139  134  142 1   
   140  136  139 1   
   141  136  140 1   
   142  136  141 1   
   143  142  143 1   
   144  142  147 1   
   145  143  144 1   
   146  143  146 1   
   147  143  148 1   
   148  144  145 2   
   149  144  152 1   
   150  146  149 1   
   151  146  150 1   
   152  146  151 1   
   153  152  153 1   
   154  152  161 1   
   155  153  154 1   
   156  153  156 1   
   157  153  162 1   
   158  154  155 2   
   159  154  167 1   
   160  156  157 1   
   161  156  163 1   
   162  156  164 1   
   163  157  158 1   
   164  157  165 1   
   165  157  166 1   
   166  158  159 1   
   167  158  160 1   
   168  167  168 1   
   169  167  172 1   
   170  168  169 1   
   171  168  170 1   
   172  168  171 1   
   173  174  175 1   
   174  174  176 1   
   175  177  178 1   
   176  177  179 1   
   177  180  181 1   
   178  180  182 1   
@<TRIPOS>SUBSTRUCTURE
     1 MOL         1 TEMP              0 ****  ****    0 ROOT
