@<TRIPOS>MOLECULE
MOL
  175   173     1     0     0
SMALL
resp


@<TRIPOS>ATOM
      1 C1         -0.3250   -3.3140    6.1430 c3        1 MOL     -0.413097
      2 C2          0.1020   -3.3750    4.7140 c         1 MOL      0.707606
      3 O1         -0.6650   -3.8890    3.9060 o         1 MOL     -0.552011
      4 H1         -0.6030   -4.3130    6.4820 hc        1 MOL      0.098721
      5 H2          0.4980   -2.9400    6.7530 hc        1 MOL      0.098721
      6 H3         -1.1820   -2.6470    6.2400 hc        1 MOL      0.098721
      7 N1          1.3370   -2.9600    4.3700 n         1 MOL     -0.523972
      8 C3          1.8330   -2.9130    3.0180 c3        1 MOL     -0.005991
      9 C4          1.9480   -4.2890    2.2870 c         1 MOL      0.462024
     10 O2          2.2280   -5.3330    2.9540 o         1 MOL     -0.564626
     11 C5          3.2720   -2.4010    3.0950 c3        1 MOL     -0.086863
     12 C6          4.0830   -2.2460    1.8210 c         1 MOL      0.641092
     13 O3          5.3200   -2.4320    1.8390 o         1 MOL     -0.641975
     14 O4          3.4220   -1.9030    0.8020 o         1 MOL     -0.641975
     15 H4          1.9840   -2.6000    5.0470 hn        1 MOL      0.310090
     16 H5          1.3160   -2.0780    2.5560 h1        1 MOL      0.091801
     17 H6          3.8340   -3.1160    3.7000 hc        1 MOL      0.000139
     18 H7          3.4020   -1.4920    3.6890 hc        1 MOL      0.000139
     19 N2          1.8920   -4.3190    0.9690 n         1 MOL     -0.124561
     20 C7          2.0730   -5.4600    0.0710 c3        1 MOL      0.062877
     21 C8          2.8550   -5.1390   -1.2810 c         1 MOL      0.525764
     22 O5          2.8160   -5.8990   -2.2170 o         1 MOL     -0.544051
     23 C9          0.5880   -5.8300   -0.2120 c3        1 MOL     -0.138870
     24 H8          1.8230   -3.3980    0.5720 hn        1 MOL      0.101734
     25 H9          2.6200   -6.2400    0.5880 h1        1 MOL      0.038984
     26 H10         0.0930   -6.3370    0.6180 hc        1 MOL      0.033198
     27 H11        -0.0340   -4.9750   -0.4540 hc        1 MOL      0.033198
     28 H12         0.5740   -6.4490   -1.1040 hc        1 MOL      0.033198
     29 N3          3.6140   -4.0270   -1.3930 n         1 MOL     -0.338550
     30 C10         4.5070   -3.7370   -2.6210 c3        1 MOL      0.204067
     31 C11         5.9250   -3.2490   -2.2670 c         1 MOL      0.279733
     32 O6          6.8980   -3.4170   -3.0670 o         1 MOL     -0.528101
     33 C12         3.7960   -2.7610   -3.6200 c3        1 MOL     -0.250165
     34 C13         3.2760   -1.6200   -2.8080 c         1 MOL      0.654910
     35 O7          4.0630   -0.9540   -2.0770 o         1 MOL     -0.653799
     36 O8          2.0780   -1.3670   -2.8130 o         1 MOL     -0.653799
     37 H13         3.8170   -3.3850   -0.6440 hn        1 MOL      0.143941
     38 H14         4.6210   -4.6800   -3.1550 h1        1 MOL      0.032500
     39 H15         2.9290   -3.1560   -4.1590 hc        1 MOL      0.074935
     40 H16         4.6230   -2.4510   -4.2600 hc        1 MOL      0.074935
     41 N4          6.0430   -2.5280   -1.1300 n         1 MOL     -0.064013
     42 C14         7.3660   -1.9560   -0.7110 c3        1 MOL     -0.206079
     43 C15         7.5770   -0.4760   -1.0900 c         1 MOL      0.473249
     44 O9          8.6960    0.0750   -0.9710 o         1 MOL     -0.599735
     45 H17         5.2250   -2.2310   -0.6220 hn        1 MOL      0.062099
     46 H18         8.1530   -2.5330   -1.2000 h1        1 MOL      0.124114
     47 H19         7.4970   -2.1070    0.3650 h1        1 MOL      0.124114
     48 N5          6.5000    0.2210   -1.4770 n         1 MOL     -0.107708
     49 C16         6.5990    1.6200   -1.9080 c3        1 MOL     -0.078503
     50 C17         6.5090    2.7760   -0.8640 c         1 MOL      0.490006
     51 O10         6.7490    3.9600   -1.2440 o         1 MOL     -0.543903
     52 C18         5.6140    1.8390   -3.0440 c3        1 MOL     -0.111193
     53 C19         4.1110    1.9990   -2.6520 c         1 MOL      0.663894
     54 N6          3.1380    2.0330   -3.5340 n         1 MOL     -0.632238
     55 O11         3.7620    2.1220   -1.4490 o         1 MOL     -0.649010
     56 H20         5.6190   -0.2720   -1.5960 hn        1 MOL      0.135138
     57 H21         7.5780    1.7970   -2.3580 h1        1 MOL      0.121379
     58 H22         5.5520    0.9500   -3.6800 hc        1 MOL      0.037652
     59 H23         5.8520    2.6960   -3.6730 hc        1 MOL      0.037652
     60 H24         3.3630    2.0170   -4.5140 hn        1 MOL      0.319875
     61 H25         2.1730    1.8980   -3.2480 hn        1 MOL      0.319875
     62 N7          6.2620    2.5340    0.4380 n         1 MOL     -0.321583
     63 C20         6.1920    3.6000    1.4090 c3        1 MOL     -0.068816
     64 C21         4.9350    4.4100    1.4570 c         1 MOL      0.381312
     65 O12         4.9210    5.2600    2.3610 o         1 MOL     -0.579042
     66 H26         6.0770    1.6290    0.8570 hn        1 MOL      0.231819
     67 H27         7.1100    4.1900    1.3690 h1        1 MOL      0.088218
     68 H28         6.3560    3.2510    2.4310 h1        1 MOL      0.088218
     69 N8          3.9320    4.1250    0.7160 n         1 MOL     -0.037801
     70 C22         2.5710    4.7150    0.8660 c3        1 MOL     -0.254773
     71 C23         1.5080    3.6460    0.9870 c         1 MOL      0.578053
     72 O13         1.6690    2.4930    0.4990 o         1 MOL     -0.598566
     73 C24         2.2570    5.6110   -0.2900 c3        1 MOL      0.570592
     74 C25         2.9620    6.9440   -0.1520 c3        1 MOL     -0.346259
     75 O14         2.5870    5.1340   -1.5150 oh        1 MOL     -0.626190
     76 H29         4.1250    3.5140   -0.0680 hn        1 MOL      0.175457
     77 H30         2.5090    5.1750    1.8540 h1        1 MOL      0.103981
     78 H31         1.2000    5.8590   -0.1870 h1        1 MOL     -0.054517
     79 H32         2.6520    4.1790   -1.5140 ho        1 MOL      0.375114
     80 H33         2.3010    7.7600   -0.4280 hc        1 MOL      0.071944
     81 H34         3.2980    7.0460    0.8850 hc        1 MOL      0.071944
     82 H35         3.7980    7.0880   -0.8320 hc        1 MOL      0.071944
     83 N9          0.3350    4.0160    1.5640 n         1 MOL     -0.366008
     84 C26        -0.8660    3.1690    1.6960 c3        1 MOL     -0.178502
     85 C27        -1.6610    3.2960    0.3370 c         1 MOL      0.464715
     86 O15        -2.0710    4.4200   -0.0460 o         1 MOL     -0.570216
     87 C28        -1.7340    3.3850    3.0040 c3        1 MOL      0.162508
     88 C29        -0.7920    3.5370    4.2640 c3        1 MOL      0.036161
     89 C30        -2.6270    2.1650    3.2620 c3        1 MOL     -0.250744
     90 C31        -1.5010    3.9400    5.5640 c3        1 MOL     -0.231449
     91 H36         0.2510    4.9490    1.9410 hn        1 MOL      0.270754
     92 H37        -0.4820    2.1510    1.7560 h1        1 MOL     -0.002010
     93 H38        -2.3650    4.2780    3.0270 hc        1 MOL      0.010387
     94 H39         0.0090    4.2490    4.0390 hc        1 MOL      0.008331
     95 H40        -0.3240    2.5780    4.4820 hc        1 MOL      0.008331
     96 H41        -1.9310    1.3740    3.5510 hc        1 MOL      0.066409
     97 H42        -3.1530    2.4910    4.1570 hc        1 MOL      0.066409
     98 H43        -3.3150    1.9690    2.4370 hc        1 MOL      0.066409
     99 H44        -2.1490    3.1600    5.9770 hc        1 MOL      0.053265
    100 H45        -0.7710    4.1370    6.3420 hc        1 MOL      0.053265
    101 H46        -2.1900    4.7540    5.3440 hc        1 MOL      0.053265
    102 N10        -1.7480    2.1450   -0.3030 n         1 MOL     -0.192451
    103 C32        -2.6730    1.8380   -1.4310 c3        1 MOL      0.075816
    104 C33        -4.0800    1.5070   -0.8770 c         1 MOL      0.363875
    105 O16        -4.2350    1.0220    0.2810 o         1 MOL     -0.338364
    106 C34        -2.0820    0.7750   -2.4390 c3        1 MOL     -0.246865
    107 C35        -0.6080    1.1110   -2.8120 c         1 MOL      0.654158
    108 O17         0.3490    0.9840   -1.9970 o         1 MOL     -0.660197
    109 O18        -0.3420    1.5410   -3.9580 o         1 MOL     -0.660197
    110 H47        -1.2690    1.3400    0.0840 hn        1 MOL      0.259180
    111 H48        -2.7240    2.7660   -1.9830 h1        1 MOL      0.064593
    112 H49        -2.7220    0.6850   -3.3140 hc        1 MOL      0.090080
    113 H50        -2.0040   -0.1790   -1.9220 hc        1 MOL      0.090080
    114 N11        -5.1440    1.5950   -1.7440 n         1 MOL     -0.582503
    115 C36        -6.4900    1.1940   -1.3810 c3        1 MOL      0.473182
    116 C37        -6.7780   -0.2470   -0.9690 c         1 MOL      0.316532
    117 O19        -7.1180   -0.5410    0.1570 o         1 MOL     -0.491194
    118 C38        -7.5370    1.8570   -2.2590 c3        1 MOL     -0.353976
    119 C39        -9.0020    1.6600   -1.9400 ca        1 MOL      0.133819
    120 C40        -9.7770    0.6250   -2.5870 ca        1 MOL     -0.157515
    121 C41        -9.6690    2.4730   -1.0280 ca        1 MOL     -0.157515
    122 C42       -11.1350    0.4370   -2.2760 ca        1 MOL     -0.118853
    123 C43       -11.0340    2.3400   -0.8070 ca        1 MOL     -0.118853
    124 C44       -11.7520    1.2650   -1.3820 ca        1 MOL     -0.117612
    125 H51        -4.9880    1.9890   -2.6580 hn        1 MOL      0.314172
    126 H52        -6.7250    1.6100   -0.4040 h1        1 MOL      0.010016
    127 H53        -7.4100    1.5020   -3.2790 hc        1 MOL      0.088868
    128 H54        -7.3110    2.9240   -2.1590 hc        1 MOL      0.088868
    129 H55        -9.3760   -0.0720   -3.3140 ha        1 MOL      0.125174
    130 H56        -9.2330    3.2810   -0.4730 ha        1 MOL      0.125174
    131 H57       -11.6390   -0.4290   -2.6770 ha        1 MOL      0.110819
    132 H58       -11.5140    2.9890   -0.0860 ha        1 MOL      0.110819
    133 H59       -12.7420    0.9920   -1.0610 ha        1 MOL      0.106471
    134 N12        -6.3300   -1.1610   -1.8230 n         1 MOL     -0.100598
    135 C45        -6.2600   -2.6190   -1.5010 c3        1 MOL      0.000515
    136 C46        -5.4410   -3.0070   -0.2430 c         1 MOL      0.301998
    137 O20        -5.7170   -3.9860    0.4240 o         1 MOL     -0.497552
    138 C47        -5.6480   -3.3550   -2.6680 c3        1 MOL     -0.087919
    139 C48        -5.8890   -2.4120   -3.8570 c3        1 MOL      0.008335
    140 C49        -5.7700   -1.0280   -3.1550 c3        1 MOL     -0.087156
    141 H60        -7.2710   -2.9800   -1.3260 h1        1 MOL      0.085218
    142 H61        -4.5710   -3.3480   -2.5340 hc        1 MOL      0.068714
    143 H62        -5.9250   -4.3950   -2.7900 hc        1 MOL      0.068714
    144 H63        -5.1850   -2.5700   -4.6730 hc        1 MOL      0.018615
    145 H64        -6.9000   -2.5700   -4.2230 hc        1 MOL      0.018615
    146 H65        -4.7020   -0.7820   -3.1650 h1        1 MOL      0.042172
    147 H66        -6.3650   -0.2710   -3.6840 h1        1 MOL      0.042172
    148 N13        -4.5970   -2.0890    0.3430 n         1 MOL     -0.055544
    149 C50        -3.9070   -2.1400    1.6680 c3        1 MOL     -0.109037
    150 C51        -4.6660   -1.4600    2.7700 c         1 MOL      0.519882
    151 O21        -4.6160   -1.8340    3.9120 o         1 MOL     -0.572775
    152 C52        -2.4770   -1.5150    1.4710 c3        1 MOL      0.102344
    153 C53        -1.6960   -2.1270    0.3640 c3        1 MOL      0.078726
    154 C54        -0.3580   -1.4120    0.2020 c         1 MOL      0.356297
    155 O22         0.6530   -2.0000   -0.2340 o         1 MOL     -0.565992
    156 O23        -0.2360   -0.2590    0.6120 o         1 MOL     -0.565992
    157 H67        -4.5720   -1.1580   -0.0590 hn        1 MOL      0.045654
    158 H68        -3.7650   -3.1720    1.9730 h1        1 MOL      0.109780
    159 H69        -1.9400   -1.6390    2.4070 hc        1 MOL     -0.022782
    160 H70        -2.5660   -0.4340    1.3190 hc        1 MOL     -0.022782
    161 H71        -2.2420   -2.1230   -0.5790 hc        1 MOL     -0.000162
    162 H72        -1.5710   -3.1960    0.5500 hc        1 MOL     -0.000162
    163 N14        -5.3850   -0.4260    2.4200 n         1 MOL     -0.179517
    164 C55        -6.0440    0.4040    3.4520 c3        1 MOL     -0.124693
    165 H73        -6.3270   -0.2250    4.2970 h1        1 MOL      0.056731
    166 H74        -5.3550    1.1780    3.7910 h1        1 MOL      0.056731
    167 H75        -6.9350    0.8680    3.0310 h1        1 MOL      0.056731
    168 H76        -5.1790    0.0270    1.5480 hn        1 MOL      0.170360
    169 Ca1         2.2120    0.0180   -0.5020 Ca        1 MOL      1.672487
    170 O24         1.4260    0.4770    2.6460 oh        1 MOL     -0.807715
    171 H77         0.8690    0.4020    1.8680 ho        1 MOL      0.405521
    172 H78         0.8550    0.2540    3.3730 ho        1 MOL      0.405521
    173 O25         3.7530    1.1140    1.4560 oh        1 MOL     -0.807715
    174 H79         4.4840    0.6880    1.9070 ho        1 MOL      0.405521
    175 H80         3.0840    1.2280    2.1240 ho        1 MOL      0.405521
@<TRIPOS>BOND
     1    1    2 1   
     2    1    4 1   
     3    1    5 1   
     4    1    6 1   
     5    2    3 2   
     6    2    7 1   
     7    7    8 1   
     8    7   15 1   
     9    8    9 1   
    10    8   11 1   
    11    8   16 1   
    12    9   10 2   
    13    9   19 1   
    14   11   12 1   
    15   11   17 1   
    16   11   18 1   
    17   12   13 1   
    18   12   14 1   
    19   19   20 1   
    20   19   24 1   
    21   20   21 1   
    22   20   23 1   
    23   20   25 1   
    24   21   22 2   
    25   21   29 1   
    26   23   26 1   
    27   23   27 1   
    28   23   28 1   
    29   29   30 1   
    30   29   37 1   
    31   30   31 1   
    32   30   33 1   
    33   30   38 1   
    34   31   32 2   
    35   31   41 1   
    36   33   34 1   
    37   33   39 1   
    38   33   40 1   
    39   34   35 1   
    40   34   36 1   
    41   41   42 1   
    42   41   45 1   
    43   42   43 1   
    44   42   46 1   
    45   42   47 1   
    46   43   44 2   
    47   43   48 1   
    48   48   49 1   
    49   48   56 1   
    50   49   50 1   
    51   49   52 1   
    52   49   57 1   
    53   50   51 2   
    54   50   62 1   
    55   52   53 1   
    56   52   58 1   
    57   52   59 1   
    58   53   54 1   
    59   53   55 2   
    60   54   60 1   
    61   54   61 1   
    62   62   63 1   
    63   62   66 1   
    64   63   64 1   
    65   63   67 1   
    66   63   68 1   
    67   64   65 2   
    68   64   69 1   
    69   69   70 1   
    70   69   76 1   
    71   70   71 1   
    72   70   73 1   
    73   70   77 1   
    74   71   72 2   
    75   71   83 1   
    76   73   74 1   
    77   73   75 1   
    78   73   78 1   
    79   74   80 1   
    80   74   81 1   
    81   74   82 1   
    82   75   79 1   
    83   83   84 1   
    84   83   91 1   
    85   84   85 1   
    86   84   87 1   
    87   84   92 1   
    88   85   86 2   
    89   85  102 1   
    90   87   88 1   
    91   87   89 1   
    92   87   93 1   
    93   88   90 1   
    94   88   94 1   
    95   88   95 1   
    96   89   96 1   
    97   89   97 1   
    98   89   98 1   
    99   90   99 1   
   100   90  100 1   
   101   90  101 1   
   102  102  103 1   
   103  102  110 1   
   104  103  104 1   
   105  103  106 1   
   106  103  111 1   
   107  104  105 2   
   108  104  114 1   
   109  106  107 1   
   110  106  112 1   
   111  106  113 1   
   112  107  108 1   
   113  107  109 1   
   114  114  115 1   
   115  114  125 1   
   116  115  116 1   
   117  115  118 1   
   118  115  126 1   
   119  116  117 2   
   120  116  134 1   
   121  118  119 1   
   122  118  127 1   
   123  118  128 1   
   124  119  120 ar  
   125  119  121 ar  
   126  120  122 ar  
   127  120  129 1   
   128  121  123 ar  
   129  121  130 1   
   130  122  124 ar  
   131  122  131 1   
   132  123  124 ar  
   133  123  132 1   
   134  124  133 1   
   135  134  135 1   
   136  134  140 1   
   137  135  136 1   
   138  135  138 1   
   139  135  141 1   
   140  136  137 2   
   141  136  148 1   
   142  138  139 1   
   143  138  142 1   
   144  138  143 1   
   145  139  140 1   
   146  139  144 1   
   147  139  145 1   
   148  140  146 1   
   149  140  147 1   
   150  148  149 1   
   151  148  157 1   
   152  149  150 1   
   153  149  152 1   
   154  149  158 1   
   155  150  151 2   
   156  150  163 1   
   157  152  153 1   
   158  152  159 1   
   159  152  160 1   
   160  153  154 1   
   161  153  161 1   
   162  153  162 1   
   163  154  155 1   
   164  154  156 1   
   165  163  164 1   
   166  163  168 1   
   167  164  165 1   
   168  164  166 1   
   169  164  167 1   
   170  170  171 1   
   171  170  172 1   
   172  173  174 1   
   173  173  175 1   
@<TRIPOS>SUBSTRUCTURE
     1 MOL         1 TEMP              0 ****  ****    0 ROOT
