@<TRIPOS>MOLECULE
MOL
  189   185     1     0     0
SMALL
resp


@<TRIPOS>ATOM
      1 C1          0.7710    4.0550   -3.8170 c3        1 MOL     -0.335709
      2 C2          1.5310    3.4630   -2.6940 c         1 MOL      0.687588
      3 O1          1.2280    3.8670   -1.5150 o         1 MOL     -0.610173
      4 H1         -0.2650    4.2070   -3.5140 hc        1 MOL      0.090809
      5 H2          1.2130    5.0140   -4.0900 hc        1 MOL      0.090809
      6 H3          0.8030    3.3820   -4.6730 hc        1 MOL      0.090809
      7 N1          2.4800    2.6090   -2.9260 n         1 MOL     -0.546801
      8 C3          3.1650    1.9250   -1.8850 c3        1 MOL      0.292396
      9 C4          4.3010    2.7760   -1.2010 c         1 MOL      0.261417
     10 O2          5.5420    2.5620   -1.4110 o         1 MOL     -0.474511
     11 C5          3.6920    0.6330   -2.4870 c3        1 MOL     -0.093746
     12 C6          4.1520   -0.4080   -1.4350 c         1 MOL      0.646883
     13 O3          3.5940   -0.3150   -0.3020 o         1 MOL     -0.680217
     14 O4          5.0490   -1.2840   -1.7360 o         1 MOL     -0.680217
     15 H4          2.6400    2.3080   -3.8700 hn        1 MOL      0.292173
     16 H5          2.5230    1.6210   -1.0590 h1        1 MOL     -0.015129
     17 H6          4.5360    0.8540   -3.1400 hc        1 MOL      0.023711
     18 H7          2.9420    0.1480   -3.1130 hc        1 MOL      0.023711
     19 N2          3.9460    3.6790   -0.2460 n         1 MOL     -0.314737
     20 C7          4.8650    4.5790    0.5510 c3        1 MOL     -0.010850
     21 C8          5.3940    4.1020    1.9290 c         1 MOL      0.481854
     22 O5          6.1890    4.6710    2.6570 o         1 MOL     -0.572944
     23 C9          4.1980    5.9560    0.7870 c3        1 MOL     -0.272591
     24 C10         3.8790    6.9440   -0.3120 c3        1 MOL      0.156159
     25 C11         5.0920    7.6720   -0.9400 c3        1 MOL     -0.259996
     26 C12         5.7440    6.6270   -1.8750 c3        1 MOL      0.227058
     27 N3          7.1930    6.4840   -1.6340 n4        1 MOL     -0.469560
     28 H8          2.9600    3.7950   -0.0510 hn        1 MOL      0.352628
     29 H9          5.7260    4.7320   -0.0830 h1        1 MOL      0.023291
     30 H10         4.7230    6.4760    1.5850 hc        1 MOL      0.102861
     31 H11         3.2990    5.7240    1.3640 hc        1 MOL      0.102861
     32 H12         3.1700    7.6940    0.0310 hc        1 MOL      0.015744
     33 H13         3.3090    6.4340   -1.0830 hc        1 MOL      0.015744
     34 H14         5.8210    8.0240   -0.2120 hc        1 MOL      0.085481
     35 H15         4.7940    8.4670   -1.6200 hc        1 MOL      0.085481
     36 H16         5.5510    6.8390   -2.9270 hx        1 MOL      0.045745
     37 H17         5.2960    5.6280   -1.7950 hx        1 MOL      0.045745
     38 H18         7.5710    5.7270   -2.1870 hn        1 MOL      0.349389
     39 H19         7.7860    7.3010   -1.7640 hn        1 MOL      0.349389
     40 H20         7.3550    6.2100   -0.6760 hn        1 MOL      0.349389
     41 N4          4.9080    2.9500    2.3600 n         1 MOL     -0.146371
     42 C13         5.3700    2.0580    3.4020 c3        1 MOL     -0.027347
     43 C14         6.1360    0.8300    2.8430 c         1 MOL      0.399113
     44 O6          6.5870   -0.0140    3.6260 o         1 MOL     -0.495783
     45 C15         4.2330    1.6420    4.3490 c3        1 MOL     -0.181366
     46 C16         3.0560    0.8970    3.7050 c         1 MOL      0.721085
     47 O7          2.9130    0.6900    2.4800 o         1 MOL     -0.683570
     48 O8          2.1320    0.5300    4.4790 o         1 MOL     -0.683570
     49 H21         4.0430    2.6600    1.9260 hn        1 MOL      0.134059
     50 H22         6.1290    2.5510    4.0090 h1        1 MOL      0.113884
     51 H23         3.9360    2.5130    4.9290 hc        1 MOL      0.066767
     52 H24         4.6870    1.0160    5.1140 hc        1 MOL      0.066767
     53 N5          6.4280    0.8780    1.5070 n         1 MOL     -0.220321
     54 C17         7.1560   -0.0430    0.6560 c3        1 MOL     -0.163637
     55 C18         7.0440   -1.5150    0.7530 c         1 MOL      0.651290
     56 O9          7.9420   -2.2760    0.4070 o         1 MOL     -0.614076
     57 H25         6.1510    1.7420    1.0740 hn        1 MOL      0.160726
     58 H26         8.2330    0.0910    0.8110 h1        1 MOL      0.085962
     59 H27         6.8850    0.2220   -0.3630 h1        1 MOL      0.085962
     60 N6          5.9490   -2.0850    1.2830 n         1 MOL     -0.360842
     61 C19         5.8420   -3.5260    1.7200 c3        1 MOL     -0.026997
     62 C20         5.6470   -4.4200    0.5180 c         1 MOL      0.403606
     63 O10         5.5320   -5.6580    0.6360 o         1 MOL     -0.542956
     64 C21         4.7390   -3.6380    2.8280 c3        1 MOL     -0.161100
     65 C22         3.3470   -3.3060    2.3000 c         1 MOL      0.688421
     66 O11         2.5150   -2.9320    3.2060 o         1 MOL     -0.660218
     67 O12         2.9440   -3.3290    1.1210 o         1 MOL     -0.660218
     68 H28         5.2080   -1.4840    1.6170 hn        1 MOL      0.212440
     69 H29         6.7320   -3.8420    2.2560 h1        1 MOL      0.115465
     70 H30         5.0360   -3.0530    3.6910 hc        1 MOL      0.076833
     71 H31         4.7700   -4.6850    3.1440 hc        1 MOL      0.076833
     72 N7          5.5170   -3.8770   -0.6950 n         1 MOL     -0.157661
     73 C23         5.3130   -4.5750   -1.9540 c3        1 MOL     -0.117571
     74 C24         3.8710   -5.0850   -2.0980 c         1 MOL      0.494368
     75 O13         3.7360   -6.0350   -2.9510 o         1 MOL     -0.589921
     76 H32         5.5160   -2.8690   -0.7610 hn        1 MOL      0.258508
     77 H33         5.9950   -5.4010   -2.1740 h1        1 MOL      0.083724
     78 H34         5.4480   -3.8590   -2.7680 h1        1 MOL      0.083724
     79 N8          2.8850   -4.6120   -1.3410 n         1 MOL     -0.124122
     80 C25         1.4710   -4.7800   -1.6100 c3        1 MOL     -0.327368
     81 C26         0.7190   -3.4060   -1.7320 c         1 MOL      0.840884
     82 O14         1.0400   -2.4640   -1.0400 o         1 MOL     -0.723176
     83 C27         0.7740   -5.7130   -0.6220 c3        1 MOL      0.553371
     84 C28         0.9060   -7.1890   -1.0380 c3        1 MOL     -0.553922
     85 O15         1.4140   -5.7050    0.6670 oh        1 MOL     -0.682303
     86 H35         3.1830   -4.0120   -0.5780 hn        1 MOL      0.106167
     87 H36         1.4480   -5.2420   -2.5910 h1        1 MOL      0.104444
     88 H37        -0.2930   -5.5120   -0.5100 h1        1 MOL     -0.050158
     89 H38         1.8500   -4.8510    0.7910 ho        1 MOL      0.468883
     90 H39         1.9570   -7.4480   -0.9460 hc        1 MOL      0.143847
     91 H40         0.3900   -7.8880   -0.3910 hc        1 MOL      0.143847
     92 H41         0.6190   -7.2820   -2.0880 hc        1 MOL      0.143847
     93 N9         -0.3440   -3.3660   -2.4960 n         1 MOL     -0.653979
     94 C29        -1.2300   -2.1620   -2.5350 c3        1 MOL     -0.026531
     95 C30        -2.5430   -2.6020   -1.8960 c         1 MOL      0.546102
     96 O16        -3.0720   -3.7250   -2.2060 o         1 MOL     -0.583882
     97 C31        -1.4390   -1.5990   -3.9500 c3        1 MOL      0.096868
     98 C32        -0.1070   -1.1130   -4.6060 c3        1 MOL      0.064643
     99 C33        -2.3810   -0.4240   -3.9540 c3        1 MOL     -0.205623
    100 C34        -0.0810   -0.3250   -5.9100 c3        1 MOL     -0.182616
    101 H42        -0.6330   -4.0940   -3.1450 hn        1 MOL      0.338353
    102 H43        -0.8090   -1.3370   -1.9530 h1        1 MOL      0.073126
    103 H44        -1.8910   -2.3320   -4.6250 hc        1 MOL      0.018274
    104 H45         0.6300   -1.9110   -4.6170 hc        1 MOL      0.008786
    105 H46         0.3640   -0.3180   -4.0270 hc        1 MOL      0.008786
    106 H47        -2.6000   -0.0140   -4.9350 hc        1 MOL      0.019971
    107 H48        -3.3500   -0.7100   -3.5530 hc        1 MOL      0.019971
    108 H49        -2.0190    0.3300   -3.2570 hc        1 MOL      0.019971
    109 H50        -0.5780   -0.8700   -6.7070 hc        1 MOL      0.044460
    110 H51        -0.6050    0.6240   -5.7810 hc        1 MOL      0.044460
    111 H52         0.9570   -0.1950   -6.2210 hc        1 MOL      0.044460
    112 N10        -3.1550   -1.8010   -1.0500 n         1 MOL     -0.252874
    113 C35        -4.5230   -1.9780   -0.5380 c3        1 MOL     -0.003982
    114 C36        -5.6000   -1.0450   -1.0990 c         1 MOL      0.422266
    115 O17        -5.2300   -0.0020   -1.7450 o         1 MOL     -0.415942
    116 C37        -4.5530   -1.9140    0.9960 c3        1 MOL      0.230211
    117 C38        -3.6910   -2.9660    1.7380 c3        1 MOL     -0.607904
    118 O18        -4.1990   -0.5890    1.4290 oh        1 MOL     -0.580331
    119 H53        -2.6270   -0.9550   -0.8590 hn        1 MOL      0.421625
    120 H54        -4.8830   -2.9700   -0.7990 h1        1 MOL      0.056765
    121 H55        -5.5470   -2.1410    1.3660 h1        1 MOL      0.008759
    122 H56        -3.2460   -0.6100    1.3660 ho        1 MOL      0.398798
    123 H57        -4.1680   -3.9400    1.6370 hc        1 MOL      0.173928
    124 H58        -2.7910   -3.0770    1.1350 hc        1 MOL      0.173928
    125 H59        -3.4360   -2.7570    2.7780 hc        1 MOL      0.173928
    126 N11        -6.8390   -1.3680   -0.9000 n         1 MOL     -0.427021
    127 C39        -7.9960   -0.4730   -1.1210 c3        1 MOL      0.040680
    128 C40        -7.8430    0.9130   -0.5070 c         1 MOL      0.158860
    129 O19        -8.1580    1.9130   -1.1250 o         1 MOL     -0.461832
    130 C41        -9.3210   -1.0760   -0.5930 c3        1 MOL      0.254771
    131 C42        -9.9760   -2.3640   -1.0310 c3        1 MOL     -0.442229
    132 O20        -9.2680   -1.2510    0.7880 oh        1 MOL     -0.567742
    133 H60        -7.0300   -2.2400   -0.4260 hn        1 MOL      0.304673
    134 H61        -8.1200   -0.2820   -2.1840 h1        1 MOL      0.112429
    135 H62       -10.0340   -0.2820   -0.8180 h1        1 MOL      0.030858
    136 H63       -10.0490   -0.7550    1.0440 ho        1 MOL      0.349750
    137 H64       -10.3540   -2.3510   -2.0490 hc        1 MOL      0.128931
    138 H65        -9.2090   -3.1400   -0.9290 hc        1 MOL      0.128931
    139 H66       -10.7080   -2.7000   -0.3080 hc        1 MOL      0.128931
    140 N12        -7.2800    0.8790    0.6860 n         1 MOL      0.167430
    141 C43        -6.9950    2.0810    1.5150 c3        1 MOL     -0.206761
    142 C44        -5.8730    2.9760    0.9620 c         1 MOL      0.399668
    143 O21        -6.0410    4.1620    1.1790 o         1 MOL     -0.508654
    144 C45        -6.6680    1.7160    2.9950 c3        1 MOL     -0.202380
    145 C46        -7.5110    0.5120    3.6160 c3        1 MOL      0.136942
    146 C47        -8.9540    0.8590    3.6070 c3        1 MOL     -0.029669
    147 C48        -9.6970   -0.3690    4.1930 c3        1 MOL      0.081086
    148 N13       -11.1950   -0.0100    4.4030 n4        1 MOL     -0.335973
    149 H67        -6.8910    0.0010    1.0030 hn        1 MOL      0.162097
    150 H68        -7.9260    2.6320    1.5640 h1        1 MOL      0.098777
    151 H69        -6.6650    2.5760    3.6620 hc        1 MOL      0.084454
    152 H70        -5.6100    1.4230    2.9460 hc        1 MOL      0.084454
    153 H71        -7.1190    0.3760    4.6220 hc        1 MOL     -0.004719
    154 H72        -7.3410   -0.3830    3.0020 hc        1 MOL     -0.004719
    155 H73        -9.3410    1.1210    2.6240 hc        1 MOL      0.022155
    156 H74        -9.1450    1.7080    4.2690 hc        1 MOL      0.022155
    157 H75        -9.1820   -0.8100    5.0420 hx        1 MOL      0.065095
    158 H76        -9.6850   -1.1980    3.4830 hx        1 MOL      0.065095
    159 H77       -11.6390    0.3940    3.5910 hn        1 MOL      0.288657
    160 H78       -11.7960   -0.7580    4.7290 hn        1 MOL      0.288657
    161 H79       -11.2600    0.7590    5.0520 hn        1 MOL      0.288657
    162 N14        -4.9330    2.3980    0.2440 n         1 MOL      0.128968
    163 C49        -3.8720    3.1620   -0.4490 c3        1 MOL     -0.334219
    164 C50        -4.3400    3.6820   -1.8350 c         1 MOL      0.476842
    165 O22        -4.1420    4.8780   -2.1630 o         1 MOL     -0.540949
    166 C51        -2.5720    2.2730   -0.6690 c3        1 MOL      0.426170
    167 C52        -2.0280    1.8590    0.6990 c3        1 MOL     -0.306425
    168 C53        -0.8710    0.8630    0.4160 c         1 MOL      0.783027
    169 O23         0.3020    1.3100    0.4560 o         1 MOL     -0.769440
    170 O24        -1.0720   -0.3500    0.2490 o         1 MOL     -0.769440
    171 H80        -5.0210    1.4030    0.1480 hn        1 MOL      0.039321
    172 H81        -3.5970    4.0210    0.1620 h1        1 MOL      0.135839
    173 H82        -1.9100    2.8220   -1.3340 hc        1 MOL     -0.064506
    174 H83        -2.8890    1.3570   -1.1600 hc        1 MOL     -0.064506
    175 H84        -2.7660    1.3680    1.3240 hc        1 MOL      0.032373
    176 H85        -1.6200    2.7000    1.2550 hc        1 MOL      0.032373
    177 N15        -5.1890    2.9560   -2.5100 n         1 MOL     -0.218194
    178 C54        -5.9810    3.5140   -3.6230 c3        1 MOL     -0.276132
    179 H86        -7.0130    3.6500   -3.3010 h1        1 MOL      0.118177
    180 H87        -5.5640    4.4760   -3.9210 h1        1 MOL      0.118177
    181 H88        -5.9520    2.8270   -4.4700 h1        1 MOL      0.118177
    182 H89        -5.3850    2.0210   -2.1960 hn        1 MOL      0.206051
    183 Ca1         1.5760   -0.9070    1.0190 Ca        1 MOL      1.756365
    184 O25         0.0840   -0.4230    3.3770 oh        1 MOL     -0.807044
    185 H90        -0.6860   -0.2870    3.9290 ho        1 MOL      0.376642
    186 H91         0.8040   -0.0360    3.8840 ho        1 MOL      0.376642
    187 O26        -0.0840   -2.9450    1.9660 oh        1 MOL     -0.807044
    188 H92        -0.4320   -2.6970    2.8150 ho        1 MOL      0.376642
    189 H93         0.1900   -3.8560    2.0750 ho        1 MOL      0.376642
@<TRIPOS>BOND
     1    1    2 1   
     2    1    4 1   
     3    1    5 1   
     4    1    6 1   
     5    2    3 2   
     6    2    7 1   
     7    7    8 1   
     8    7   15 1   
     9    8    9 1   
    10    8   11 1   
    11    8   16 1   
    12    9   10 2   
    13    9   19 1   
    14   11   12 1   
    15   11   17 1   
    16   11   18 1   
    17   12   13 1   
    18   12   14 1   
    19   19   20 1   
    20   19   28 1   
    21   20   21 1   
    22   20   23 1   
    23   20   29 1   
    24   21   22 2   
    25   21   41 1   
    26   23   24 1   
    27   23   30 1   
    28   23   31 1   
    29   24   25 1   
    30   24   32 1   
    31   24   33 1   
    32   25   26 1   
    33   25   34 1   
    34   25   35 1   
    35   26   27 1   
    36   26   36 1   
    37   26   37 1   
    38   27   38 1   
    39   27   39 1   
    40   27   40 1   
    41   41   42 1   
    42   41   49 1   
    43   42   43 1   
    44   42   45 1   
    45   42   50 1   
    46   43   44 2   
    47   43   53 1   
    48   45   46 1   
    49   45   51 1   
    50   45   52 1   
    51   46   47 1   
    52   46   48 1   
    53   53   54 1   
    54   53   57 1   
    55   54   55 1   
    56   54   58 1   
    57   54   59 1   
    58   55   56 2   
    59   55   60 1   
    60   60   61 1   
    61   60   68 1   
    62   61   62 1   
    63   61   64 1   
    64   61   69 1   
    65   62   63 2   
    66   62   72 1   
    67   64   65 1   
    68   64   70 1   
    69   64   71 1   
    70   65   66 1   
    71   65   67 1   
    72   72   73 1   
    73   72   76 1   
    74   73   74 1   
    75   73   77 1   
    76   73   78 1   
    77   74   75 2   
    78   74   79 1   
    79   79   80 1   
    80   79   86 1   
    81   80   81 1   
    82   80   83 1   
    83   80   87 1   
    84   81   82 2   
    85   81   93 1   
    86   83   84 1   
    87   83   85 1   
    88   83   88 1   
    89   84   90 1   
    90   84   91 1   
    91   84   92 1   
    92   85   89 1   
    93   93   94 1   
    94   93  101 1   
    95   94   95 1   
    96   94   97 1   
    97   94  102 1   
    98   95   96 2   
    99   95  112 1   
   100   97   98 1   
   101   97   99 1   
   102   97  103 1   
   103   98  100 1   
   104   98  104 1   
   105   98  105 1   
   106   99  106 1   
   107   99  107 1   
   108   99  108 1   
   109  100  109 1   
   110  100  110 1   
   111  100  111 1   
   112  112  113 1   
   113  112  119 1   
   114  113  114 1   
   115  113  116 1   
   116  113  120 1   
   117  114  115 2   
   118  114  126 1   
   119  116  117 1   
   120  116  118 1   
   121  116  121 1   
   122  117  123 1   
   123  117  124 1   
   124  117  125 1   
   125  118  122 1   
   126  126  127 1   
   127  126  133 1   
   128  127  128 1   
   129  127  130 1   
   130  127  134 1   
   131  128  129 2   
   132  128  140 1   
   133  130  131 1   
   134  130  132 1   
   135  130  135 1   
   136  131  137 1   
   137  131  138 1   
   138  131  139 1   
   139  132  136 1   
   140  140  141 1   
   141  140  149 1   
   142  141  142 1   
   143  141  144 1   
   144  141  150 1   
   145  142  143 2   
   146  142  162 1   
   147  144  145 1   
   148  144  151 1   
   149  144  152 1   
   150  145  146 1   
   151  145  153 1   
   152  145  154 1   
   153  146  147 1   
   154  146  155 1   
   155  146  156 1   
   156  147  148 1   
   157  147  157 1   
   158  147  158 1   
   159  148  159 1   
   160  148  160 1   
   161  148  161 1   
   162  162  163 1   
   163  162  171 1   
   164  163  164 1   
   165  163  166 1   
   166  163  172 1   
   167  164  165 2   
   168  164  177 1   
   169  166  167 1   
   170  166  173 1   
   171  166  174 1   
   172  167  168 1   
   173  167  175 1   
   174  167  176 1   
   175  168  169 1   
   176  168  170 1   
   177  177  178 1   
   178  177  182 1   
   179  178  179 1   
   180  178  180 1   
   181  178  181 1   
   182  184  185 1   
   183  184  186 1   
   184  187  188 1   
   185  187  189 1   
@<TRIPOS>SUBSTRUCTURE
     1 MOL         1 TEMP              0 ****  ****    0 ROOT
