@<TRIPOS>MOLECULE
MOL
  189   185     1     0     0
SMALL
resp


@<TRIPOS>ATOM
      1 C1         -0.4290    2.2840   -5.5250 c3        1 MOL     -0.296895
      2 C2          0.1700    2.3390   -4.1060 c         1 MOL      0.761680
      3 O1         -0.4630    2.8230   -3.1620 o         1 MOL     -0.768163
      4 H1          0.3750    2.3140   -6.2600 hc        1 MOL      0.074963
      5 H2         -0.9950    1.3600   -5.6450 hc        1 MOL      0.074963
      6 H3         -1.0900    3.1370   -5.6750 hc        1 MOL      0.074963
      7 N1          1.4060    1.8770   -3.9690 n         1 MOL     -0.638180
      8 C3          2.0680    1.8540   -2.6180 c3        1 MOL      0.353034
      9 C4          2.2470    3.2270   -2.0690 c         1 MOL      0.375046
     10 O2          2.9510    3.9900   -2.6940 o         1 MOL     -0.585151
     11 C5          3.2820    0.9260   -2.6730 c3        1 MOL     -0.310879
     12 C6          3.9860    0.6450   -1.3860 c         1 MOL      0.788104
     13 O3          4.8970   -0.1660   -1.5360 o         1 MOL     -0.677253
     14 O4          3.5430    1.1830   -0.3190 o         1 MOL     -0.677253
     15 H4          1.8320    1.3970   -4.7420 hn        1 MOL      0.336601
     16 H5          1.3010    1.3850   -1.9890 h1        1 MOL     -0.058339
     17 H6          4.0760    1.3710   -3.2630 hc        1 MOL      0.071557
     18 H7          2.9880   -0.0400   -3.0710 hc        1 MOL      0.071557
     19 N2          1.7630    3.5120   -0.8830 n         1 MOL     -0.021418
     20 C7          1.7220    4.8220   -0.1840 c3        1 MOL     -0.071843
     21 C8          2.5710    4.8950    1.1140 c         1 MOL      0.510913
     22 O5          2.3650    5.8010    1.9090 o         1 MOL     -0.530220
     23 C9          0.2650    5.2790    0.0410 c3        1 MOL      0.105126
     24 C10        -0.2660    5.6560   -1.3950 c3        1 MOL      0.021898
     25 C11        -1.6110    6.3060   -1.4880 c3        1 MOL     -0.120874
     26 C12        -2.0730    6.6090   -2.9490 c3        1 MOL      0.020135
     27 N3         -2.2180    5.4110   -3.7270 n4        1 MOL     -0.155790
     28 H8          1.2690    2.7420   -0.4530 hn        1 MOL      0.166010
     29 H9          2.0820    5.5890   -0.8700 h1        1 MOL      0.023616
     30 H10         0.2620    6.1370    0.7030 hc        1 MOL     -0.010299
     31 H11        -0.3670    4.4970    0.4440 hc        1 MOL     -0.010299
     32 H12        -0.5080    4.6800   -1.8430 hc        1 MOL      0.034859
     33 H13         0.4340    6.1080   -2.0920 hc        1 MOL      0.034859
     34 H14        -1.4950    7.2720   -1.0180 hc        1 MOL      0.046534
     35 H15        -2.3510    5.6720   -0.9890 hc        1 MOL      0.046534
     36 H16        -1.2170    7.0980   -3.4240 hx        1 MOL      0.056527
     37 H17        -2.9730    7.2260   -2.9840 hx        1 MOL      0.056527
     38 H18        -2.3490    5.7010   -4.6810 hn        1 MOL      0.274117
     39 H19        -1.3570    4.8990   -3.6930 hn        1 MOL      0.274117
     40 H20        -2.9770    4.8450   -3.3760 hn        1 MOL      0.274117
     41 N4          3.4130    3.8500    1.3620 n         1 MOL     -0.281990
     42 C13         4.4240    3.9130    2.3960 c3        1 MOL      0.020938
     43 C14         5.7980    3.2850    2.0120 c         1 MOL      0.506055
     44 O6          6.7560    3.3360    2.8020 o         1 MOL     -0.534434
     45 C15         3.8150    3.3910    3.7610 c3        1 MOL     -0.177106
     46 C16         2.9830    2.0730    3.7820 c         1 MOL      0.856425
     47 O7          2.9400    1.3950    2.7490 o         1 MOL     -0.739642
     48 O8          2.3110    1.7410    4.8010 o         1 MOL     -0.739642
     49 H21         3.4950    3.0910    0.7140 hn        1 MOL      0.054368
     50 H22         4.6730    4.9670    2.5230 h1        1 MOL      0.071906
     51 H23         3.1640    4.1930    4.1040 hc        1 MOL      0.040292
     52 H24         4.5900    3.2560    4.5100 hc        1 MOL      0.040292
     53 N5          5.9590    2.7480    0.8070 n         1 MOL     -0.461604
     54 C17         7.2620    2.2860    0.2710 c3        1 MOL     -0.015533
     55 C18         7.6580    0.8890    0.6510 c         1 MOL      0.405431
     56 O9          8.8140    0.4840    0.3910 o         1 MOL     -0.580320
     57 H25         5.1850    2.8270    0.1530 hn        1 MOL      0.313616
     58 H26         8.1000    2.9530    0.4970 h1        1 MOL      0.089613
     59 H27         7.2590    2.3960   -0.8120 h1        1 MOL      0.089613
     60 N6          6.7710    0.0890    1.2460 n         1 MOL     -0.132056
     61 C19         7.1390   -1.1770    1.8440 c3        1 MOL     -0.028722
     62 C20         7.1480   -2.3630    0.8350 c         1 MOL      0.389552
     63 O10         7.6310   -3.4770    1.2420 o         1 MOL     -0.537959
     64 C21         6.1680   -1.4900    3.0390 c3        1 MOL     -0.336253
     65 C22         4.6840   -1.6220    2.5740 c         1 MOL      0.788659
     66 O11         4.4010   -1.6090    1.3690 o         1 MOL     -0.698553
     67 O12         3.6900   -1.6670    3.2700 o         1 MOL     -0.698553
     68 H28         5.8130    0.3790    1.3430 hn        1 MOL      0.214214
     69 H29         8.2040   -1.1010    2.1110 h1        1 MOL      0.132294
     70 H30         6.1870   -0.6380    3.7200 hc        1 MOL      0.100670
     71 H31         6.5630   -2.3870    3.5220 hc        1 MOL      0.100670
     72 N7          6.9590   -2.0850   -0.4690 n         1 MOL     -0.153899
     73 C23         6.9210   -3.0780   -1.5220 c3        1 MOL     -0.328323
     74 C24         5.6040   -3.9030   -1.4860 c         1 MOL      0.626050
     75 O13         5.5870   -4.9280   -2.1420 o         1 MOL     -0.585158
     76 H32         6.6570   -1.1560   -0.7190 hn        1 MOL      0.244121
     77 H33         7.6570   -3.8740   -1.3900 h1        1 MOL      0.145062
     78 H34         6.9280   -2.6000   -2.4920 h1        1 MOL      0.145062
     79 N8          4.5640   -3.4580   -0.7940 n         1 MOL     -0.372785
     80 C25         3.2500   -4.1930   -0.7820 c3        1 MOL     -0.128805
     81 C26         1.9770   -3.3000   -0.9220 c         1 MOL      0.923891
     82 O14         2.0630   -2.1040   -0.6820 o         1 MOL     -0.714765
     83 C27         3.0650   -5.1480    0.4040 c3        1 MOL      0.252399
     84 C28         4.2860   -6.1510    0.5410 c3        1 MOL     -0.381461
     85 O15         3.0120   -4.5480    1.7200 oh        1 MOL     -0.561578
     86 H35         4.6040   -2.4900   -0.5200 hn        1 MOL      0.266387
     87 H36         3.2770   -4.8680   -1.6430 h1        1 MOL      0.069797
     88 H37         2.1570   -5.7190    0.1960 h1        1 MOL      0.042813
     89 H38         3.9400   -4.3780    1.8630 ho        1 MOL      0.406483
     90 H39         4.1720   -6.8570    1.3620 hc        1 MOL      0.111430
     91 H40         4.3060   -6.7340   -0.3790 hc        1 MOL      0.111430
     92 H41         5.2430   -5.6400    0.6700 hc        1 MOL      0.111430
     93 N9          0.8910   -3.8840   -1.4610 n         1 MOL     -0.752640
     94 C29        -0.3860   -3.1270   -1.7170 c3        1 MOL      0.128703
     95 C30        -1.5690   -3.6840   -0.9140 c         1 MOL      0.509357
     96 O16        -1.9080   -4.8560   -1.0310 o         1 MOL     -0.556217
     97 C31        -0.7660   -3.0870   -3.1980 c3        1 MOL      0.280678
     98 C32         0.3870   -2.4110   -4.0400 c3        1 MOL      0.032843
     99 C33        -2.0420   -2.3750   -3.5150 c3        1 MOL     -0.312754
    100 C34         0.3900   -2.6640   -5.5120 c3        1 MOL     -0.201907
    101 H42         1.0330   -4.7670   -1.9150 hn        1 MOL      0.327630
    102 H43        -0.2150   -2.1420   -1.2910 h1        1 MOL      0.018219
    103 H44        -0.8960   -4.1200   -3.5110 hc        1 MOL     -0.017195
    104 H45         1.3320   -2.7500   -3.6390 hc        1 MOL      0.007984
    105 H46         0.3160   -1.3510   -3.8110 hc        1 MOL      0.007984
    106 H47        -2.1490   -1.3530   -3.1260 hc        1 MOL      0.045954
    107 H48        -2.1610   -2.3060   -4.5990 hc        1 MOL      0.045954
    108 H49        -2.8220   -3.0220   -3.1170 hc        1 MOL      0.045954
    109 H50        -0.5750   -2.4480   -5.9730 hc        1 MOL      0.047632
    110 H51         1.1360   -2.0360   -5.9880 hc        1 MOL      0.047632
    111 H52         0.6050   -3.6980   -5.7810 hc        1 MOL      0.047632
    112 N10        -2.3200   -2.7690   -0.3040 n         1 MOL     -0.070558
    113 C35        -3.4630   -3.1160    0.6260 c3        1 MOL     -0.152863
    114 C36        -4.8450   -2.8770   -0.1060 c         1 MOL      0.402112
    115 O17        -4.9590   -2.4500   -1.2800 o         1 MOL     -0.395956
    116 C37        -3.4060   -2.2150    1.8050 c3        1 MOL      0.209773
    117 C38        -2.1350   -2.3100    2.6190 c3        1 MOL     -0.438279
    118 O18        -3.5420   -0.9120    1.3540 oh        1 MOL     -0.501341
    119 H53        -2.1010   -1.7860   -0.3530 hn        1 MOL      0.080762
    120 H54        -3.4170   -4.1470    0.9800 h1        1 MOL      0.113859
    121 H55        -4.3420   -2.4500    2.3090 h1        1 MOL     -0.023875
    122 H56        -2.9610   -0.2920    1.8120 ho        1 MOL      0.412413
    123 H57        -1.9010   -3.3660    2.7370 hc        1 MOL      0.135086
    124 H58        -1.3140   -1.8670    2.0610 hc        1 MOL      0.135086
    125 H59        -2.2830   -1.8910    3.6140 hc        1 MOL      0.135086
    126 N11        -5.9810   -3.1500    0.5970 n         1 MOL     -0.254514
    127 C39        -7.2780   -2.6780    0.0720 c3        1 MOL     -0.249461
    128 C40        -7.4280   -1.1470    0.0420 c         1 MOL      0.554181
    129 O19        -8.0740   -0.6570   -0.8680 o         1 MOL     -0.514082
    130 C41        -8.4040   -3.4110    0.8640 c3        1 MOL      0.296933
    131 C42        -8.2510   -4.9330    0.6360 c3        1 MOL     -0.397885
    132 O20        -8.3620   -3.2100    2.2180 oh        1 MOL     -0.664784
    133 H60        -5.9550   -3.5030    1.5470 hn        1 MOL      0.292961
    134 H61        -7.4080   -2.9850   -0.9680 h1        1 MOL      0.159314
    135 H62        -9.3560   -3.0460    0.4800 h1        1 MOL      0.036935
    136 H63        -9.0710   -3.7420    2.5980 ho        1 MOL      0.433569
    137 H64        -9.1390   -5.3330    1.1130 hc        1 MOL      0.113517
    138 H65        -8.2750   -5.2260   -0.4150 hc        1 MOL      0.113517
    139 H66        -7.2940   -5.2090    1.0730 hc        1 MOL      0.113517
    140 N12        -6.7830   -0.3770    0.9490 n         1 MOL     -0.350901
    141 C43        -6.8160    1.1160    0.8460 c3        1 MOL     -0.265101
    142 C44        -5.9660    1.6100   -0.2610 c         1 MOL      0.534955
    143 O21        -6.3040    2.7320   -0.6650 o         1 MOL     -0.535918
    144 C45        -6.4660    1.7560    2.2310 c3        1 MOL      0.143447
    145 C46        -7.5650    1.3260    3.3380 c3        1 MOL      0.003030
    146 C47        -7.1120    1.9430    4.6880 c3        1 MOL      0.038610
    147 C48        -8.1810    2.5220    5.5510 c3        1 MOL     -0.057508
    148 N13        -9.0880    1.5240    6.0930 n4        1 MOL     -0.175131
    149 H67        -6.2420   -0.8080    1.6830 hn        1 MOL      0.337884
    150 H68        -7.8420    1.3450    0.5580 h1        1 MOL      0.173097
    151 H69        -6.3240    2.8220    2.0910 hc        1 MOL      0.004461
    152 H70        -5.5250    1.3300    2.5610 hc        1 MOL      0.004461
    153 H71        -7.4860    0.2370    3.3940 hc        1 MOL     -0.017056
    154 H72        -8.5440    1.6390    2.9710 hc        1 MOL     -0.017056
    155 H73        -6.3510    2.6560    4.3950 hc        1 MOL      0.017930
    156 H74        -6.5780    1.2120    5.2920 hc        1 MOL      0.017930
    157 H75        -8.7760    3.1320    4.8870 hx        1 MOL      0.103107
    158 H76        -7.7350    3.1910    6.2830 hx        1 MOL      0.103107
    159 H77        -8.5710    0.9410    6.7310 hn        1 MOL      0.241028
    160 H78        -9.7950    1.9090    6.6990 hn        1 MOL      0.241028
    161 H79        -9.5240    0.9420    5.3900 hn        1 MOL      0.241028
    162 N14        -4.8170    0.9440   -0.6550 n         1 MOL      0.012113
    163 C49        -3.8610    1.4220   -1.6540 c3        1 MOL     -0.339243
    164 C50        -4.3900    1.0970   -3.0950 c         1 MOL      0.629089
    165 O22        -4.3990    1.9740   -3.9240 o         1 MOL     -0.576780
    166 C51        -2.4760    0.8620   -1.4860 c3        1 MOL      0.100690
    167 C52        -1.7330    1.6240   -0.3650 c3        1 MOL      0.012896
    168 C53        -0.4640    0.9310    0.0790 c         1 MOL      0.498599
    169 O23        -0.3360   -0.2880    0.1500 o         1 MOL     -0.608243
    170 O24         0.4770    1.6540    0.5970 o         1 MOL     -0.608243
    171 H80        -4.5970    0.0470   -0.2470 hn        1 MOL     -0.082991
    172 H81        -3.8090    2.5020   -1.5050 h1        1 MOL      0.124060
    173 H82        -1.9200    0.7880   -2.4230 hc        1 MOL      0.057697
    174 H83        -2.4780   -0.1740   -1.1560 hc        1 MOL      0.057697
    175 H84        -2.3830    1.8150    0.4970 hc        1 MOL      0.004734
    176 H85        -1.6360    2.6500   -0.7180 hc        1 MOL      0.004734
    177 N15        -5.0820   -0.0820   -3.2820 n         1 MOL     -0.251272
    178 C54        -6.0970   -0.0510   -4.3160 c3        1 MOL     -0.355032
    179 H86        -6.7470   -0.9190   -4.2120 h1        1 MOL      0.135149
    180 H87        -6.6880    0.8590   -4.2180 h1        1 MOL      0.135149
    181 H88        -5.6180   -0.0700   -5.2960 h1        1 MOL      0.135149
    182 H89        -5.1300   -0.7650   -2.5340 hn        1 MOL      0.246604
    183 Ca1         1.9740   -0.4540    1.2190 Ca        1 MOL      1.727280
    184 O25         0.5230    0.1770    3.6330 oh        1 MOL     -0.871880
    185 H90        -0.0040   -0.3210    4.2670 ho        1 MOL      0.397924
    186 H91         1.1210    0.6930    4.1670 ho        1 MOL      0.397924
    187 O26         0.9740   -2.8550    2.3010 oh        1 MOL     -0.871880
    188 H92         0.6960   -2.9860    3.2070 ho        1 MOL      0.397924
    189 H93         1.6090   -3.5540    2.1360 ho        1 MOL      0.397924
@<TRIPOS>BOND
     1    1    2 1   
     2    1    4 1   
     3    1    5 1   
     4    1    6 1   
     5    2    3 2   
     6    2    7 1   
     7    7    8 1   
     8    7   15 1   
     9    8    9 1   
    10    8   11 1   
    11    8   16 1   
    12    9   10 2   
    13    9   19 1   
    14   11   12 1   
    15   11   17 1   
    16   11   18 1   
    17   12   13 1   
    18   12   14 1   
    19   19   20 1   
    20   19   28 1   
    21   20   21 1   
    22   20   23 1   
    23   20   29 1   
    24   21   22 2   
    25   21   41 1   
    26   23   24 1   
    27   23   30 1   
    28   23   31 1   
    29   24   25 1   
    30   24   32 1   
    31   24   33 1   
    32   25   26 1   
    33   25   34 1   
    34   25   35 1   
    35   26   27 1   
    36   26   36 1   
    37   26   37 1   
    38   27   38 1   
    39   27   39 1   
    40   27   40 1   
    41   41   42 1   
    42   41   49 1   
    43   42   43 1   
    44   42   45 1   
    45   42   50 1   
    46   43   44 2   
    47   43   53 1   
    48   45   46 1   
    49   45   51 1   
    50   45   52 1   
    51   46   47 1   
    52   46   48 1   
    53   53   54 1   
    54   53   57 1   
    55   54   55 1   
    56   54   58 1   
    57   54   59 1   
    58   55   56 2   
    59   55   60 1   
    60   60   61 1   
    61   60   68 1   
    62   61   62 1   
    63   61   64 1   
    64   61   69 1   
    65   62   63 2   
    66   62   72 1   
    67   64   65 1   
    68   64   70 1   
    69   64   71 1   
    70   65   66 1   
    71   65   67 1   
    72   72   73 1   
    73   72   76 1   
    74   73   74 1   
    75   73   77 1   
    76   73   78 1   
    77   74   75 2   
    78   74   79 1   
    79   79   80 1   
    80   79   86 1   
    81   80   81 1   
    82   80   83 1   
    83   80   87 1   
    84   81   82 2   
    85   81   93 1   
    86   83   84 1   
    87   83   85 1   
    88   83   88 1   
    89   84   90 1   
    90   84   91 1   
    91   84   92 1   
    92   85   89 1   
    93   93   94 1   
    94   93  101 1   
    95   94   95 1   
    96   94   97 1   
    97   94  102 1   
    98   95   96 2   
    99   95  112 1   
   100   97   98 1   
   101   97   99 1   
   102   97  103 1   
   103   98  100 1   
   104   98  104 1   
   105   98  105 1   
   106   99  106 1   
   107   99  107 1   
   108   99  108 1   
   109  100  109 1   
   110  100  110 1   
   111  100  111 1   
   112  112  113 1   
   113  112  119 1   
   114  113  114 1   
   115  113  116 1   
   116  113  120 1   
   117  114  115 2   
   118  114  126 1   
   119  116  117 1   
   120  116  118 1   
   121  116  121 1   
   122  117  123 1   
   123  117  124 1   
   124  117  125 1   
   125  118  122 1   
   126  126  127 1   
   127  126  133 1   
   128  127  128 1   
   129  127  130 1   
   130  127  134 1   
   131  128  129 2   
   132  128  140 1   
   133  130  131 1   
   134  130  132 1   
   135  130  135 1   
   136  131  137 1   
   137  131  138 1   
   138  131  139 1   
   139  132  136 1   
   140  140  141 1   
   141  140  149 1   
   142  141  142 1   
   143  141  144 1   
   144  141  150 1   
   145  142  143 2   
   146  142  162 1   
   147  144  145 1   
   148  144  151 1   
   149  144  152 1   
   150  145  146 1   
   151  145  153 1   
   152  145  154 1   
   153  146  147 1   
   154  146  155 1   
   155  146  156 1   
   156  147  148 1   
   157  147  157 1   
   158  147  158 1   
   159  148  159 1   
   160  148  160 1   
   161  148  161 1   
   162  162  163 1   
   163  162  171 1   
   164  163  164 1   
   165  163  166 1   
   166  163  172 1   
   167  164  165 2   
   168  164  177 1   
   169  166  167 1   
   170  166  173 1   
   171  166  174 1   
   172  167  168 1   
   173  167  175 1   
   174  167  176 1   
   175  168  169 1   
   176  168  170 1   
   177  177  178 1   
   178  177  182 1   
   179  178  179 1   
   180  178  180 1   
   181  178  181 1   
   182  184  185 1   
   183  184  186 1   
   184  187  188 1   
   185  187  189 1   
@<TRIPOS>SUBSTRUCTURE
     1 MOL         1 TEMP              0 ****  ****    0 ROOT
