@<TRIPOS>MOLECULE
MOL
  189   185     1     0     0
SMALL
resp


@<TRIPOS>ATOM
      1 C1          0.1710    2.9890    5.5440 c3        1 MOL     -0.328261
      2 C2         -0.0130    2.3510    4.1730 c         1 MOL      0.705046
      3 O1          0.8100    2.5760    3.2980 o         1 MOL     -0.595283
      4 H1          0.2490    4.0710    5.4330 hc        1 MOL      0.081476
      5 H2         -0.6860    2.7500    6.1750 hc        1 MOL      0.081476
      6 H3          1.0810    2.6060    6.0050 hc        1 MOL      0.081476
      7 N1         -1.1780    1.7000    3.8470 n         1 MOL     -0.500803
      8 C3         -1.6170    1.5940    2.4740 c3        1 MOL      0.005549
      9 C4         -1.8740    3.0380    1.8900 c         1 MOL      0.492081
     10 O2         -2.4440    3.8120    2.6690 o         1 MOL     -0.610762
     11 C5         -2.9050    0.7610    2.5070 c3        1 MOL     -0.092494
     12 C6         -3.7660    0.6920    1.1770 c         1 MOL      0.627490
     13 O3         -4.9800    0.3340    1.2380 o         1 MOL     -0.631792
     14 O4         -3.1660    0.9170    0.0960 o         1 MOL     -0.631792
     15 H4         -1.7460    1.5780    4.6810 hn        1 MOL      0.332673
     16 H5         -0.8840    1.1130    1.8370 h1        1 MOL     -0.082618
     17 H6         -3.5160    0.9590    3.3880 hc        1 MOL      0.034032
     18 H7         -2.6930   -0.2680    2.8160 hc        1 MOL      0.034032
     19 N2         -1.4710    3.3170    0.6850 n         1 MOL     -0.000917
     20 C7         -1.4530    4.5910    0.0170 c3        1 MOL      0.012300
     21 C8         -2.5760    4.7060   -1.0990 c         1 MOL      0.421154
     22 O5         -2.5870    5.6200   -1.9120 o         1 MOL     -0.523712
     23 C9          0.0190    5.0090   -0.3350 c3        1 MOL      0.288269
     24 C10         1.0180    5.0660    0.8790 c3        1 MOL     -0.243442
     25 C11         0.7540    6.0740    1.9540 c3        1 MOL     -0.169479
     26 C12         1.7170    5.9180    3.1280 c3        1 MOL      0.227352
     27 N3          1.4660    6.9550    4.1600 n4        1 MOL     -0.544139
     28 H8         -0.9190    2.6070    0.2300 hn        1 MOL      0.201777
     29 H9         -1.6780    5.3030    0.8130 h1        1 MOL     -0.030801
     30 H10         0.0170    5.9700   -0.8500 hc        1 MOL     -0.037563
     31 H11         0.4620    4.3780   -1.1100 hc        1 MOL     -0.037563
     32 H12         2.0310    5.1680    0.4980 hc        1 MOL      0.058057
     33 H13         1.0240    4.0840    1.3390 hc        1 MOL      0.058057
     34 H14        -0.2490    5.8550    2.3240 hc        1 MOL      0.071607
     35 H15         0.7440    7.1060    1.6040 hc        1 MOL      0.071607
     36 H16         2.7730    6.0740    2.8850 hx        1 MOL      0.051210
     37 H17         1.6240    4.9310    3.5800 hx        1 MOL      0.051210
     38 H18         1.9950    6.7540    5.0060 hn        1 MOL      0.363303
     39 H19         1.7550    7.8860    3.8840 hn        1 MOL      0.363303
     40 H20         0.4820    6.8650    4.3730 hn        1 MOL      0.363303
     41 N4         -3.3510    3.6500   -1.2590 n         1 MOL     -0.317839
     42 C13        -4.3050    3.5340   -2.3920 c3        1 MOL     -0.005260
     43 C14        -5.7000    3.0590   -2.0550 c         1 MOL      0.427540
     44 O6         -6.6140    3.1100   -2.8760 o         1 MOL     -0.507289
     45 C15        -3.8550    2.4850   -3.4460 c3        1 MOL      0.068323
     46 C16        -2.3530    2.4390   -3.7250 c         1 MOL      0.625292
     47 O7         -1.8960    3.1650   -4.6180 o         1 MOL     -0.638091
     48 O8         -1.7010    1.5810   -3.0570 o         1 MOL     -0.638091
     49 H21        -3.2670    2.8690   -0.6340 hn        1 MOL      0.120554
     50 H22        -4.4730    4.5210   -2.8300 h1        1 MOL      0.107426
     51 H23        -4.4500    2.6410   -4.3440 hc        1 MOL     -0.025475
     52 H24        -4.0250    1.4630   -3.0990 hc        1 MOL     -0.025475
     53 N5         -5.8890    2.7770   -0.7710 n         1 MOL     -0.291940
     54 C17        -7.1590    2.3690   -0.2460 c3        1 MOL     -0.107477
     55 C18        -7.7610    1.1010   -0.8090 c         1 MOL      0.430312
     56 O9         -8.9850    0.8180   -0.6710 o         1 MOL     -0.559233
     57 H25        -5.1870    2.9480   -0.0700 hn        1 MOL      0.248669
     58 H26        -7.9030    3.1640   -0.3060 h1        1 MOL      0.082512
     59 H27        -7.0440    2.1610    0.8190 h1        1 MOL      0.082512
     60 N6         -6.8780    0.2670   -1.3270 n         1 MOL     -0.184259
     61 C19        -7.1940   -1.0760   -1.7270 c3        1 MOL     -0.066024
     62 C20        -7.2370   -2.0080   -0.5250 c         1 MOL      0.444890
     63 O10        -7.8250   -3.1090   -0.6940 o         1 MOL     -0.575416
     64 C21        -6.1390   -1.5340   -2.7940 c3        1 MOL     -0.263628
     65 C22        -4.6880   -1.5260   -2.3020 c         1 MOL      0.855457
     66 O11        -4.3230   -1.7540   -1.1240 o         1 MOL     -0.785534
     67 O12        -3.8050   -1.1130   -3.0490 o         1 MOL     -0.785534
     68 H28        -5.9080    0.5150   -1.2280 hn        1 MOL      0.222694
     69 H29        -8.1690   -1.0380   -2.2030 h1        1 MOL      0.137529
     70 H30        -6.2160   -0.8540   -3.6410 hc        1 MOL      0.083518
     71 H31        -6.3100   -2.5500   -3.1390 hc        1 MOL      0.083518
     72 N7         -6.8490   -1.5700    0.6300 n         1 MOL     -0.137839
     73 C23        -6.9050   -2.3110    1.9140 c3        1 MOL     -0.181313
     74 C24        -5.6650   -3.2030    2.2860 c         1 MOL      0.591968
     75 O13        -5.7880   -4.0770    3.1110 o         1 MOL     -0.572186
     76 H32        -6.3720   -0.6840    0.5800 hn        1 MOL      0.218653
     77 H33        -7.8010   -2.9200    1.9740 h1        1 MOL      0.095979
     78 H34        -6.9210   -1.5680    2.7200 h1        1 MOL      0.095979
     79 N8         -4.5690   -3.0320    1.5680 n         1 MOL     -0.310292
     80 C25        -3.4490   -3.9970    1.4050 c3        1 MOL     -0.042660
     81 C26        -2.1020   -3.2260    1.2860 c         1 MOL      0.532446
     82 O14        -2.1120   -2.0760    0.8100 o         1 MOL     -0.469057
     83 C27        -3.7160   -4.9370    0.2190 c3        1 MOL      0.324247
     84 C28        -5.0030   -5.7310    0.3920 c3        1 MOL     -0.492851
     85 O15        -3.6450   -4.3080   -1.0230 oh        1 MOL     -0.547155
     86 H35        -4.5540   -2.2700    0.9110 hn        1 MOL      0.142946
     87 H36        -3.3060   -4.6550    2.2640 h1        1 MOL      0.062627
     88 H37        -2.8570   -5.6100    0.2170 h1        1 MOL     -0.002657
     89 H38        -4.1540   -3.5090   -0.8290 ho        1 MOL      0.396950
     90 H39        -5.0690   -6.5200   -0.3520 hc        1 MOL      0.139078
     91 H40        -4.9810   -6.2810    1.3230 hc        1 MOL      0.139078
     92 H41        -5.8960   -5.1090    0.2670 hc        1 MOL      0.139078
     93 N9         -0.9270   -3.8110    1.6310 n         1 MOL     -0.581135
     94 C29         0.4280   -3.1770    1.5710 c3        1 MOL      0.124127
     95 C30         1.4380   -3.8000    0.5890 c         1 MOL      0.484243
     96 O16         1.6890   -4.9640    0.7790 o         1 MOL     -0.563497
     97 C31         0.9890   -2.9930    3.0590 c3        1 MOL      0.064442
     98 C32         0.3110   -1.7930    3.7120 c3        1 MOL     -0.020514
     99 C33         2.5090   -2.9090    3.1750 c3        1 MOL     -0.154129
    100 C34         0.5560   -1.5470    5.2180 c3        1 MOL     -0.297875
    101 H42        -0.9080   -4.7380    2.0380 hn        1 MOL      0.312698
    102 H43         0.3150   -2.1990    1.1070 h1        1 MOL      0.000515
    103 H44         0.7390   -3.9050    3.5980 hc        1 MOL      0.021936
    104 H45        -0.7560   -1.8440    3.5000 hc        1 MOL      0.069857
    105 H46         0.7280   -0.9200    3.2190 hc        1 MOL      0.069857
    106 H47         3.1130   -3.7480    2.8340 hc        1 MOL      0.023972
    107 H48         2.6950   -2.0750    2.4970 hc        1 MOL      0.023972
    108 H49         2.7430   -2.6810    4.2050 hc        1 MOL      0.023972
    109 H50        -0.1500   -0.7860    5.5220 hc        1 MOL      0.075184
    110 H51         0.3720   -2.5230    5.6660 hc        1 MOL      0.075184
    111 H52         1.5950   -1.3380    5.4890 hc        1 MOL      0.075184
    112 N10         2.0560   -3.0000   -0.2380 n         1 MOL     -0.010010
    113 C35         3.1330   -3.3620   -1.1580 c3        1 MOL     -0.091865
    114 C36         4.5360   -3.0030   -0.6380 c         1 MOL      0.298908
    115 O17         4.5950   -2.2550    0.2970 o         1 MOL     -0.241726
    116 C37         2.8040   -2.7800   -2.5010 c3        1 MOL      0.372507
    117 C38         1.6180   -3.4090   -3.1820 c3        1 MOL     -0.246437
    118 O18         2.5950   -1.4040   -2.4600 oh        1 MOL     -0.623479
    119 H53         1.7930   -2.0290   -0.1050 hn        1 MOL     -0.044803
    120 H54         3.1600   -4.4480   -1.2050 h1        1 MOL      0.046556
    121 H55         3.6030   -2.9940   -3.2160 h1        1 MOL     -0.013388
    122 H56         1.8000   -1.3750   -1.9100 ho        1 MOL      0.413832
    123 H57         1.8180   -4.4810   -3.2590 hc        1 MOL      0.052256
    124 H58         0.7790   -3.2600   -2.4950 hc        1 MOL      0.052256
    125 H59         1.5240   -3.0100   -4.1860 hc        1 MOL      0.052256
    126 N11         5.5910   -3.4480   -1.2390 n         1 MOL     -0.114863
    127 C39         7.0230   -3.2380   -0.6930 c3        1 MOL     -0.567164
    128 C40         7.3590   -1.7590   -0.3170 c         1 MOL      0.675538
    129 O19         7.8760   -1.4710    0.7750 o         1 MOL     -0.510810
    130 C41         8.1390   -3.9390   -1.5100 c3        1 MOL      0.496594
    131 C42         7.9740   -5.4810   -1.6080 c3        1 MOL     -0.505030
    132 O20         8.0830   -3.2910   -2.7560 oh        1 MOL     -0.643991
    133 H60         5.5490   -3.9420   -2.1240 hn        1 MOL      0.228151
    134 H61         7.0260   -3.7730    0.2580 h1        1 MOL      0.202550
    135 H62         9.1080   -3.6440   -1.0940 h1        1 MOL      0.021484
    136 H63         8.8570   -3.4220   -3.3150 ho        1 MOL      0.407168
    137 H64         7.2490   -5.6720   -2.3990 hc        1 MOL      0.142157
    138 H65         8.9100   -5.9130   -1.9320 hc        1 MOL      0.142157
    139 H66         7.5640   -5.8730   -0.6750 hc        1 MOL      0.142157
    140 N12         6.9420   -0.7860   -1.1900 n         1 MOL     -0.468521
    141 C43         6.9270    0.6220   -0.9590 c3        1 MOL     -0.014305
    142 C44         6.2040    1.1470    0.2630 c         1 MOL      0.357772
    143 O21         6.8220    1.8920    1.0020 o         1 MOL     -0.492784
    144 C45         6.3840    1.3680   -2.2190 c3        1 MOL     -0.090617
    145 C46         6.6750    2.8030   -2.4050 c3        1 MOL      0.016533
    146 C47         8.0610    3.0150   -3.0120 c3        1 MOL     -0.021441
    147 C48         8.2770    4.5260   -3.0550 c3        1 MOL     -0.098676
    148 N13         7.3690    5.1920   -4.0900 n4        1 MOL     -0.419131
    149 H67         6.3330   -1.1630   -1.8990 hn        1 MOL      0.272284
    150 H68         7.9700    0.9090   -0.8800 h1        1 MOL      0.106446
    151 H69         5.3080    1.1980   -2.2480 hc        1 MOL      0.049120
    152 H70         6.7940    0.8480   -3.0780 hc        1 MOL      0.049120
    153 H71         6.6180    3.3800   -1.4770 hc        1 MOL      0.027992
    154 H72         5.9630    3.2080   -3.1240 hc        1 MOL      0.027992
    155 H73         8.1090    2.4600   -3.9610 hc        1 MOL      0.053900
    156 H74         8.8880    2.6440   -2.4080 hc        1 MOL      0.053900
    157 H75         9.3440    4.7250   -3.1490 hx        1 MOL      0.130424
    158 H76         8.1550    4.9410   -2.0520 hx        1 MOL      0.130424
    159 H77         7.6490    6.1710   -4.0430 hn        1 MOL      0.325043
    160 H78         7.6120    4.8300   -5.0040 hn        1 MOL      0.325043
    161 H79         6.3680    5.1000   -3.9990 hn        1 MOL      0.325043
    162 N14         4.9950    0.6070    0.4620 n         1 MOL     -0.143683
    163 C49         4.0690    0.9800    1.5590 c3        1 MOL     -0.081212
    164 C50         4.7300    0.4610    2.9090 c         1 MOL      0.367801
    165 O22         4.8150    1.1400    3.9180 o         1 MOL     -0.541834
    166 C51         2.6880    0.4910    1.2490 c3        1 MOL      0.087766
    167 C52         2.1850    1.2060   -0.0150 c3        1 MOL     -0.040984
    168 C53         0.8690    0.5670   -0.5580 c         1 MOL      0.910778
    169 O23         0.7220   -0.6460   -0.9030 o         1 MOL     -0.775675
    170 O24        -0.0810    1.3370   -0.6920 o         1 MOL     -0.775675
    171 H80         4.6930   -0.0880   -0.2020 hn        1 MOL      0.166075
    172 H81         4.0120    2.0650    1.7020 h1        1 MOL      0.069935
    173 H82         2.0520    0.6830    2.1150 hc        1 MOL      0.027837
    174 H83         2.7660   -0.5800    1.0620 hc        1 MOL      0.027837
    175 H84         2.8310    1.2340   -0.8990 hc        1 MOL     -0.015960
    176 H85         1.9300    2.2400    0.2050 hc        1 MOL     -0.015960
    177 N15         5.3710   -0.7280    2.8750 n         1 MOL      0.054012
    178 C54         6.1890   -1.2810    3.9540 c3        1 MOL     -0.294172
    179 H86         6.7290   -0.4740    4.4490 h1        1 MOL      0.107726
    180 H87         5.5470   -1.7850    4.6760 h1        1 MOL      0.107726
    181 H88         6.9020   -1.9940    3.5400 h1        1 MOL      0.107726
    182 H89         5.2020   -1.2920    2.0510 hn        1 MOL      0.049213
    183 Ca1        -1.8370   -0.5850   -1.5500 Ca        1 MOL      1.712825
    184 O25        -0.4550   -0.5860   -3.9850 oh        1 MOL     -0.841347
    185 H90        -0.9530    0.1640   -4.3130 ho        1 MOL      0.395115
    186 H91        -0.3900   -1.1750   -4.7300 ho        1 MOL      0.395115
    187 O26        -1.5520   -3.1560   -2.1390 oh        1 MOL     -0.841347
    188 H92        -1.0860   -3.5830   -2.8580 ho        1 MOL      0.395115
    189 H93        -1.9090   -3.8810   -1.6210 ho        1 MOL      0.395115
@<TRIPOS>BOND
     1    1    2 1   
     2    1    4 1   
     3    1    5 1   
     4    1    6 1   
     5    2    3 2   
     6    2    7 1   
     7    7    8 1   
     8    7   15 1   
     9    8    9 1   
    10    8   11 1   
    11    8   16 1   
    12    9   10 2   
    13    9   19 1   
    14   11   12 1   
    15   11   17 1   
    16   11   18 1   
    17   12   13 1   
    18   12   14 1   
    19   19   20 1   
    20   19   28 1   
    21   20   21 1   
    22   20   23 1   
    23   20   29 1   
    24   21   22 2   
    25   21   41 1   
    26   23   24 1   
    27   23   30 1   
    28   23   31 1   
    29   24   25 1   
    30   24   32 1   
    31   24   33 1   
    32   25   26 1   
    33   25   34 1   
    34   25   35 1   
    35   26   27 1   
    36   26   36 1   
    37   26   37 1   
    38   27   38 1   
    39   27   39 1   
    40   27   40 1   
    41   41   42 1   
    42   41   49 1   
    43   42   43 1   
    44   42   45 1   
    45   42   50 1   
    46   43   44 2   
    47   43   53 1   
    48   45   46 1   
    49   45   51 1   
    50   45   52 1   
    51   46   47 1   
    52   46   48 1   
    53   53   54 1   
    54   53   57 1   
    55   54   55 1   
    56   54   58 1   
    57   54   59 1   
    58   55   56 2   
    59   55   60 1   
    60   60   61 1   
    61   60   68 1   
    62   61   62 1   
    63   61   64 1   
    64   61   69 1   
    65   62   63 2   
    66   62   72 1   
    67   64   65 1   
    68   64   70 1   
    69   64   71 1   
    70   65   66 1   
    71   65   67 1   
    72   72   73 1   
    73   72   76 1   
    74   73   74 1   
    75   73   77 1   
    76   73   78 1   
    77   74   75 2   
    78   74   79 1   
    79   79   80 1   
    80   79   86 1   
    81   80   81 1   
    82   80   83 1   
    83   80   87 1   
    84   81   82 2   
    85   81   93 1   
    86   83   84 1   
    87   83   85 1   
    88   83   88 1   
    89   84   90 1   
    90   84   91 1   
    91   84   92 1   
    92   85   89 1   
    93   93   94 1   
    94   93  101 1   
    95   94   95 1   
    96   94   97 1   
    97   94  102 1   
    98   95   96 2   
    99   95  112 1   
   100   97   98 1   
   101   97   99 1   
   102   97  103 1   
   103   98  100 1   
   104   98  104 1   
   105   98  105 1   
   106   99  106 1   
   107   99  107 1   
   108   99  108 1   
   109  100  109 1   
   110  100  110 1   
   111  100  111 1   
   112  112  113 1   
   113  112  119 1   
   114  113  114 1   
   115  113  116 1   
   116  113  120 1   
   117  114  115 2   
   118  114  126 1   
   119  116  117 1   
   120  116  118 1   
   121  116  121 1   
   122  117  123 1   
   123  117  124 1   
   124  117  125 1   
   125  118  122 1   
   126  126  127 1   
   127  126  133 1   
   128  127  128 1   
   129  127  130 1   
   130  127  134 1   
   131  128  129 2   
   132  128  140 1   
   133  130  131 1   
   134  130  132 1   
   135  130  135 1   
   136  131  137 1   
   137  131  138 1   
   138  131  139 1   
   139  132  136 1   
   140  140  141 1   
   141  140  149 1   
   142  141  142 1   
   143  141  144 1   
   144  141  150 1   
   145  142  143 2   
   146  142  162 1   
   147  144  145 1   
   148  144  151 1   
   149  144  152 1   
   150  145  146 1   
   151  145  153 1   
   152  145  154 1   
   153  146  147 1   
   154  146  155 1   
   155  146  156 1   
   156  147  148 1   
   157  147  157 1   
   158  147  158 1   
   159  148  159 1   
   160  148  160 1   
   161  148  161 1   
   162  162  163 1   
   163  162  171 1   
   164  163  164 1   
   165  163  166 1   
   166  163  172 1   
   167  164  165 2   
   168  164  177 1   
   169  166  167 1   
   170  166  173 1   
   171  166  174 1   
   172  167  168 1   
   173  167  175 1   
   174  167  176 1   
   175  168  169 1   
   176  168  170 1   
   177  177  178 1   
   178  177  182 1   
   179  178  179 1   
   180  178  180 1   
   181  178  181 1   
   182  184  185 1   
   183  184  186 1   
   184  187  188 1   
   185  187  189 1   
@<TRIPOS>SUBSTRUCTURE
     1 MOL         1 TEMP              0 ****  ****    0 ROOT
