@<TRIPOS>MOLECULE
MOL
  189   185     1     0     0
SMALL
resp


@<TRIPOS>ATOM
      1 C1          0.3930    2.2320    5.9320 c3        1 MOL     -0.387162
      2 C2          0.0060    2.1090    4.3920 c         1 MOL      0.639642
      3 O1          0.8260    2.3190    3.5110 o         1 MOL     -0.558966
      4 H1          1.3200    1.6910    6.1170 hc        1 MOL      0.095252
      5 H2          0.5280    3.2820    6.1910 hc        1 MOL      0.095252
      6 H3         -0.4030    1.8060    6.5420 hc        1 MOL      0.095252
      7 N1         -1.2510    1.7650    4.2040 n         1 MOL     -0.534145
      8 C3         -1.8030    1.6170    2.8690 c3        1 MOL      0.127677
      9 C4         -2.0670    2.9500    2.2230 c         1 MOL      0.338942
     10 O2         -3.0360    3.6470    2.4690 o         1 MOL     -0.535421
     11 C5         -3.0230    0.7060    2.8560 c3        1 MOL     -0.063900
     12 C6         -3.6880    0.3460    1.5000 c         1 MOL      0.726183
     13 O3         -3.1040    0.6720    0.4580 o         1 MOL     -0.703546
     14 O4         -4.7720   -0.2840    1.5620 o         1 MOL     -0.703546
     15 H4         -1.8710    1.5860    4.9760 hn        1 MOL      0.332981
     16 H5         -1.0190    1.1530    2.2680 h1        1 MOL      0.006725
     17 H6         -3.7210    1.0890    3.5960 hc        1 MOL      0.009086
     18 H7         -2.6580   -0.2190    3.3200 hc        1 MOL      0.009086
     19 N2         -1.1660    3.4270    1.3420 n         1 MOL     -0.109992
     20 C7         -1.0860    4.7740    0.7180 c3        1 MOL     -0.233340
     21 C8         -2.0850    4.8920   -0.4910 c         1 MOL      0.452973
     22 O5         -2.2590    5.9740   -1.0310 o         1 MOL     -0.568833
     23 C9          0.2910    5.1330    0.3610 c3        1 MOL      0.136891
     24 C10         1.4050    5.1370    1.4030 c3        1 MOL     -0.069190
     25 C11         1.0750    5.6250    2.7730 c3        1 MOL     -0.201389
     26 C12         0.3460    6.9430    2.7660 c3        1 MOL      0.185072
     27 N3          0.0110    7.3020    4.1560 n4        1 MOL     -0.452335
     28 H8         -0.3290    2.8740    1.2040 hn        1 MOL      0.388324
     29 H9         -1.5060    5.4610    1.4590 h1        1 MOL      0.104247
     30 H10         0.2810    6.1770    0.0360 hc        1 MOL     -0.007526
     31 H11         0.6350    4.5250   -0.4820 hc        1 MOL     -0.007526
     32 H12         2.2810    5.5550    0.9050 hc        1 MOL      0.047738
     33 H13         1.7020    4.1020    1.5810 hc        1 MOL      0.047738
     34 H14         2.0360    5.7220    3.2670 hc        1 MOL      0.076673
     35 H15         0.5330    4.8580    3.3250 hc        1 MOL      0.076673
     36 H16        -0.5840    6.9680    2.1970 hx        1 MOL      0.055746
     37 H17         0.9860    7.7210    2.3550 hx        1 MOL      0.055746
     38 H18        -0.4680    6.5380    4.6200 hn        1 MOL      0.341786
     39 H19         0.8260    7.5470    4.6980 hn        1 MOL      0.341786
     40 H20        -0.6640    8.0420    4.2180 hn        1 MOL      0.341786
     41 N4         -2.7490    3.8600   -0.9920 n         1 MOL     -0.045889
     42 C13        -3.8360    4.1190   -1.9670 c3        1 MOL      0.005999
     43 C14        -5.1240    3.4160   -1.5480 c         1 MOL      0.430572
     44 O6         -6.0820    3.5500   -2.3060 o         1 MOL     -0.527955
     45 C15        -3.3040    3.7450   -3.3680 c3        1 MOL     -0.257217
     46 C16        -2.6580    2.3180   -3.4440 c         1 MOL      0.841457
     47 O7         -1.8590    2.2050   -4.4140 o         1 MOL     -0.735761
     48 O8         -2.9510    1.4230   -2.6180 o         1 MOL     -0.735761
     49 H21        -2.5980    2.9560   -0.5600 hn        1 MOL     -0.107118
     50 H22        -4.1390    5.1650   -1.9430 h1        1 MOL      0.104370
     51 H23        -2.5650    4.5140   -3.5660 hc        1 MOL      0.068341
     52 H24        -4.0490    3.7320   -4.1620 hc        1 MOL      0.068341
     53 N5         -5.1360    2.6710   -0.4470 n         1 MOL     -0.270471
     54 C17        -6.3500    2.2040    0.2030 c3        1 MOL     -0.281029
     55 C18        -7.1460    0.9910   -0.4000 c         1 MOL      0.538329
     56 O9         -8.2740    0.6670    0.0200 o         1 MOL     -0.590434
     57 H25        -4.2760    2.4590    0.0430 hn        1 MOL      0.271732
     58 H26        -7.0810    3.0140    0.2290 h1        1 MOL      0.136909
     59 H27        -6.1180    1.9650    1.2390 h1        1 MOL      0.136909
     60 N6         -6.5120    0.3080   -1.3690 n         1 MOL     -0.348243
     61 C19        -7.0840   -0.8180   -2.1430 c3        1 MOL      0.093252
     62 C20        -7.3780   -2.0970   -1.3520 c         1 MOL      0.457560
     63 O10        -7.8870   -3.0570   -1.9120 o         1 MOL     -0.551007
     64 C21        -6.2250   -1.0950   -3.4170 c3        1 MOL     -0.435621
     65 C22        -4.7280   -1.2150   -3.0470 c         1 MOL      0.873495
     66 O11        -3.8130   -1.2940   -3.9010 o         1 MOL     -0.747564
     67 O12        -4.3310   -1.3810   -1.9010 o         1 MOL     -0.747564
     68 H28        -5.5450    0.5510   -1.5130 hn        1 MOL      0.304789
     69 H29        -8.1200   -0.5360   -2.3470 h1        1 MOL      0.069682
     70 H30        -6.3380   -0.1610   -3.9720 hc        1 MOL      0.128372
     71 H31        -6.7040   -1.9510   -3.9050 hc        1 MOL      0.128372
     72 N7         -6.8500   -2.1320   -0.0980 n         1 MOL     -0.281851
     73 C23        -6.9340   -3.0930    0.9330 c3        1 MOL      0.002956
     74 C24        -5.6660   -3.8080    1.3320 c         1 MOL      0.528551
     75 O13        -5.8480   -4.8270    1.9640 o         1 MOL     -0.598270
     76 H32        -6.4630   -1.2430    0.1750 hn        1 MOL      0.317544
     77 H33        -7.6920   -3.8590    0.7790 h1        1 MOL      0.052929
     78 H34        -7.2980   -2.6190    1.8470 h1        1 MOL      0.052929
     79 N8         -4.5010   -3.4730    0.8200 n         1 MOL     -0.124651
     80 C25        -3.1790   -4.2510    1.0430 c3        1 MOL     -0.338956
     81 C26        -2.0100   -3.3470    1.1460 c         1 MOL      0.979551
     82 O14        -2.1060   -2.2650    0.6350 o         1 MOL     -0.703751
     83 C27        -2.9650   -5.2550   -0.0990 c3        1 MOL      0.324690
     84 C28        -4.0280   -6.3650   -0.0600 c3        1 MOL     -0.540482
     85 O15        -3.0330   -4.7300   -1.4150 oh        1 MOL     -0.589398
     86 H35        -4.5350   -2.6050    0.3030 hn        1 MOL      0.080302
     87 H36        -3.3390   -4.8510    1.9410 h1        1 MOL      0.113378
     88 H37        -1.9370   -5.6050   -0.0750 h1        1 MOL      0.063037
     89 H38        -3.9710   -4.6680   -1.6280 ho        1 MOL      0.404136
     90 H39        -3.7230   -7.1960   -0.6950 hc        1 MOL      0.156771
     91 H40        -4.1350   -6.8640    0.9070 hc        1 MOL      0.156771
     92 H41        -4.9350   -5.8500   -0.3830 hc        1 MOL      0.156771
     93 N9         -0.9090   -3.8150    1.7720 n         1 MOL     -0.761216
     94 C29         0.4050   -3.1360    2.0330 c3        1 MOL      0.100279
     95 C30         1.4230   -3.7870    1.0410 c         1 MOL      0.468203
     96 O16         1.5960   -4.9950    1.0010 o         1 MOL     -0.577308
     97 C31         0.7370   -3.1120    3.4630 c3        1 MOL      0.193596
     98 C32        -0.2720   -2.1840    4.2100 c3        1 MOL      0.125773
     99 C33         2.1690   -2.6160    3.5680 c3        1 MOL     -0.201543
    100 C34        -0.0930   -2.4710    5.7600 c3        1 MOL     -0.289425
    101 H42        -0.9210   -4.7970    2.0010 hn        1 MOL      0.323060
    102 H43         0.3200   -2.1050    1.6800 h1        1 MOL      0.061595
    103 H44         0.5830   -4.0710    3.9460 hc        1 MOL     -0.009958
    104 H45        -1.2550   -2.5740    3.9730 hc        1 MOL      0.001798
    105 H46        -0.0820   -1.1470    3.9370 hc        1 MOL      0.001798
    106 H47         2.5200   -2.7350    4.5940 hc        1 MOL      0.022557
    107 H48         2.7880   -3.2250    2.9160 hc        1 MOL      0.022557
    108 H49         2.2710   -1.5550    3.3490 hc        1 MOL      0.022557
    109 H50        -0.2200   -3.4930    6.1000 hc        1 MOL      0.065302
    110 H51         0.9090   -2.1630    6.0650 hc        1 MOL      0.065302
    111 H52        -0.9110   -1.9730    6.2960 hc        1 MOL      0.065302
    112 N10         2.1540   -2.9890    0.2850 n         1 MOL      0.017239
    113 C35         3.3410   -3.4020   -0.4570 c3        1 MOL     -0.007693
    114 C36         4.6540   -3.0770    0.2340 c         1 MOL      0.415952
    115 O17         4.7220   -2.5150    1.3080 o         1 MOL     -0.382352
    116 C37         3.2630   -2.5960   -1.8400 c3        1 MOL     -0.050800
    117 C38         2.0450   -3.0040   -2.6650 c3        1 MOL     -0.224207
    118 O18         3.3320   -1.2500   -1.6080 oh        1 MOL     -0.332659
    119 H53         1.8630   -2.0210    0.1960 hn        1 MOL      0.085660
    120 H54         3.2770   -4.4710   -0.6540 h1        1 MOL      0.078911
    121 H55         4.1060   -2.8950   -2.4600 h1        1 MOL      0.046273
    122 H56         2.6330   -0.9030   -2.1700 ho        1 MOL      0.377936
    123 H57         1.9110   -2.4510   -3.5870 hc        1 MOL      0.077592
    124 H58         2.0280   -4.0730   -2.8810 hc        1 MOL      0.077592
    125 H59         1.1420   -2.8600   -2.0620 hc        1 MOL      0.077592
    126 N11         5.7780   -3.4700   -0.3590 n         1 MOL     -0.386931
    127 C39         7.0850   -2.9270    0.0510 c3        1 MOL     -0.296208
    128 C40         7.3450   -1.5290   -0.3310 c         1 MOL      0.524600
    129 O19         8.1040   -0.9500    0.4080 o         1 MOL     -0.502874
    130 C41         8.2270   -3.7450   -0.5340 c3        1 MOL      0.389629
    131 C42         8.2450   -5.0930    0.1510 c3        1 MOL     -0.305522
    132 O20         8.1230   -3.8720   -2.0210 oh        1 MOL     -0.616223
    133 H60         5.7160   -3.9410   -1.2510 hn        1 MOL      0.315424
    134 H61         7.0650   -3.0180    1.1370 h1        1 MOL      0.195266
    135 H62         9.2040   -3.3280   -0.3010 h1        1 MOL      0.025587
    136 H63         9.0200   -3.7630   -2.3490 ho        1 MOL      0.386816
    137 H64         8.2860   -4.9390    1.2210 hc        1 MOL      0.083675
    138 H65         7.3480   -5.6100   -0.2050 hc        1 MOL      0.083675
    139 H66         9.0320   -5.7930   -0.1390 hc        1 MOL      0.083675
    140 N12         6.7100   -1.0000   -1.3570 n         1 MOL     -0.427373
    141 C43         6.7410    0.4890   -1.7040 c3        1 MOL     -0.117567
    142 C44         6.0370    1.3340   -0.6010 c         1 MOL      0.312144
    143 O21         6.6280    2.3180   -0.1710 o         1 MOL     -0.515012
    144 C45         6.2490    0.7000   -3.1250 c3        1 MOL      0.235002
    145 C46         6.6500    2.1000   -3.5660 c3        1 MOL     -0.311989
    146 C47         6.0170    2.4120   -4.9810 c3        1 MOL      0.045028
    147 C48         6.5360    3.7310   -5.6880 c3        1 MOL      0.122829
    148 N13         6.7900    4.8790   -4.8080 n4        1 MOL     -0.198158
    149 H67         5.9880   -1.4700   -1.8780 hn        1 MOL      0.257711
    150 H68         7.7730    0.8330   -1.6270 h1        1 MOL      0.141462
    151 H69         5.1560    0.6210   -3.1430 hc        1 MOL     -0.008772
    152 H70         6.5410   -0.1280   -3.7790 hc        1 MOL     -0.008772
    153 H71         7.7330    2.0450   -3.5580 hc        1 MOL      0.085948
    154 H72         6.0990    2.7810   -2.9230 hc        1 MOL      0.085948
    155 H73         4.9360    2.4150   -4.8840 hc        1 MOL      0.030482
    156 H74         6.2790    1.5950   -5.6620 hc        1 MOL      0.030482
    157 H75         5.8310    4.0280   -6.4610 hx        1 MOL      0.036719
    158 H76         7.4520    3.5010   -6.2350 hx        1 MOL      0.036719
    159 H77         5.9610    5.1390   -4.2880 hn        1 MOL      0.257955
    160 H78         7.4570    4.6000   -4.1110 hn        1 MOL      0.257955
    161 H79         7.2410    5.5880   -5.3670 hn        1 MOL      0.257955
    162 N14         4.8820    0.8630   -0.1440 n         1 MOL      0.080182
    163 C49         4.1880    1.5510    0.9760 c3        1 MOL     -0.122850
    164 C50         4.8720    1.4650    2.3530 c         1 MOL      0.488690
    165 O22         4.9540    2.4720    3.0020 o         1 MOL     -0.538220
    166 C51         2.7580    0.8810    1.1000 c3        1 MOL     -0.077253
    167 C52         2.0330    1.3060   -0.1310 c3        1 MOL     -0.076543
    168 C53         0.6540    0.5950   -0.3530 c         1 MOL      0.676214
    169 O23         0.5220   -0.6430   -0.1470 o         1 MOL     -0.726349
    170 O24        -0.2440    1.1980   -0.9070 o         1 MOL     -0.726349
    171 H80         4.4460    0.0950   -0.6380 hn        1 MOL      0.013000
    172 H81         4.2500    2.5700    0.6080 h1        1 MOL      0.070516
    173 H82         2.2300    1.2820    1.9630 hc        1 MOL      0.055855
    174 H83         2.8510   -0.2070    1.1690 hc        1 MOL      0.055855
    175 H84         2.5990    1.1550   -1.0460 hc        1 MOL      0.005661
    176 H85         1.9880    2.3870   -0.0490 hc        1 MOL      0.005661
    177 N15         5.4120    0.2670    2.7680 n         1 MOL     -0.102648
    178 C54         6.1730    0.2190    4.0310 c3        1 MOL     -0.278295
    179 H86         6.8970   -0.5940    3.9870 h1        1 MOL      0.110831
    180 H87         6.6980    1.1640    4.1750 h1        1 MOL      0.110831
    181 H88         5.4890    0.0530    4.8630 h1        1 MOL      0.110831
    182 H89         5.0440   -0.5430    2.2790 hn        1 MOL      0.127489
    183 Ca1        -1.9820   -0.6200   -1.4460 Ca        1 MOL      1.786877
    184 O25        -1.3360   -2.9780   -2.7430 oh        1 MOL     -0.823724
    185 H90        -1.9340   -3.6790   -2.4940 ho        1 MOL      0.392667
    186 H91        -1.2390   -3.0700   -3.6920 ho        1 MOL      0.392667
    187 O26        -0.7960   -0.5280   -4.0680 oh        1 MOL     -0.823724
    188 H92        -1.3740    0.1420   -4.4400 ho        1 MOL      0.392667
    189 H93        -0.7210   -1.1850   -4.7650 ho        1 MOL      0.392667
@<TRIPOS>BOND
     1    1    2 1   
     2    1    4 1   
     3    1    5 1   
     4    1    6 1   
     5    2    3 2   
     6    2    7 1   
     7    7    8 1   
     8    7   15 1   
     9    8    9 1   
    10    8   11 1   
    11    8   16 1   
    12    9   10 2   
    13    9   19 1   
    14   11   12 1   
    15   11   17 1   
    16   11   18 1   
    17   12   13 1   
    18   12   14 1   
    19   19   20 1   
    20   19   28 1   
    21   20   21 1   
    22   20   23 1   
    23   20   29 1   
    24   21   22 2   
    25   21   41 1   
    26   23   24 1   
    27   23   30 1   
    28   23   31 1   
    29   24   25 1   
    30   24   32 1   
    31   24   33 1   
    32   25   26 1   
    33   25   34 1   
    34   25   35 1   
    35   26   27 1   
    36   26   36 1   
    37   26   37 1   
    38   27   38 1   
    39   27   39 1   
    40   27   40 1   
    41   41   42 1   
    42   41   49 1   
    43   42   43 1   
    44   42   45 1   
    45   42   50 1   
    46   43   44 2   
    47   43   53 1   
    48   45   46 1   
    49   45   51 1   
    50   45   52 1   
    51   46   47 1   
    52   46   48 1   
    53   53   54 1   
    54   53   57 1   
    55   54   55 1   
    56   54   58 1   
    57   54   59 1   
    58   55   56 2   
    59   55   60 1   
    60   60   61 1   
    61   60   68 1   
    62   61   62 1   
    63   61   64 1   
    64   61   69 1   
    65   62   63 2   
    66   62   72 1   
    67   64   65 1   
    68   64   70 1   
    69   64   71 1   
    70   65   66 1   
    71   65   67 1   
    72   72   73 1   
    73   72   76 1   
    74   73   74 1   
    75   73   77 1   
    76   73   78 1   
    77   74   75 2   
    78   74   79 1   
    79   79   80 1   
    80   79   86 1   
    81   80   81 1   
    82   80   83 1   
    83   80   87 1   
    84   81   82 2   
    85   81   93 1   
    86   83   84 1   
    87   83   85 1   
    88   83   88 1   
    89   84   90 1   
    90   84   91 1   
    91   84   92 1   
    92   85   89 1   
    93   93   94 1   
    94   93  101 1   
    95   94   95 1   
    96   94   97 1   
    97   94  102 1   
    98   95   96 2   
    99   95  112 1   
   100   97   98 1   
   101   97   99 1   
   102   97  103 1   
   103   98  100 1   
   104   98  104 1   
   105   98  105 1   
   106   99  106 1   
   107   99  107 1   
   108   99  108 1   
   109  100  109 1   
   110  100  110 1   
   111  100  111 1   
   112  112  113 1   
   113  112  119 1   
   114  113  114 1   
   115  113  116 1   
   116  113  120 1   
   117  114  115 2   
   118  114  126 1   
   119  116  117 1   
   120  116  118 1   
   121  116  121 1   
   122  117  123 1   
   123  117  124 1   
   124  117  125 1   
   125  118  122 1   
   126  126  127 1   
   127  126  133 1   
   128  127  128 1   
   129  127  130 1   
   130  127  134 1   
   131  128  129 2   
   132  128  140 1   
   133  130  131 1   
   134  130  132 1   
   135  130  135 1   
   136  131  137 1   
   137  131  138 1   
   138  131  139 1   
   139  132  136 1   
   140  140  141 1   
   141  140  149 1   
   142  141  142 1   
   143  141  144 1   
   144  141  150 1   
   145  142  143 2   
   146  142  162 1   
   147  144  145 1   
   148  144  151 1   
   149  144  152 1   
   150  145  146 1   
   151  145  153 1   
   152  145  154 1   
   153  146  147 1   
   154  146  155 1   
   155  146  156 1   
   156  147  148 1   
   157  147  157 1   
   158  147  158 1   
   159  148  159 1   
   160  148  160 1   
   161  148  161 1   
   162  162  163 1   
   163  162  171 1   
   164  163  164 1   
   165  163  166 1   
   166  163  172 1   
   167  164  165 2   
   168  164  177 1   
   169  166  167 1   
   170  166  173 1   
   171  166  174 1   
   172  167  168 1   
   173  167  175 1   
   174  167  176 1   
   175  168  169 1   
   176  168  170 1   
   177  177  178 1   
   178  177  182 1   
   179  178  179 1   
   180  178  180 1   
   181  178  181 1   
   182  184  185 1   
   183  184  186 1   
   184  187  188 1   
   185  187  189 1   
@<TRIPOS>SUBSTRUCTURE
     1 MOL         1 TEMP              0 ****  ****    0 ROOT
