@<TRIPOS>MOLECULE
MOL
  189   185     1     0     0
SMALL
resp


@<TRIPOS>ATOM
      1 C1          0.3260   -4.2230    6.0580 c3        1 MOL     -0.406793
      2 C2          0.7480   -3.6610    4.7480 c         1 MOL      0.866506
      3 O1          0.7400   -2.4690    4.4680 o         1 MOL     -0.652314
      4 H1         -0.1640   -3.4460    6.6460 hc        1 MOL      0.101482
      5 H2         -0.3700   -5.0450    5.8940 hc        1 MOL      0.101482
      6 H3          1.2010   -4.5880    6.5960 hc        1 MOL      0.101482
      7 N1          1.1820   -4.5020    3.7820 n         1 MOL     -0.812490
      8 C3          1.9540   -4.0680    2.5730 c3        1 MOL      0.487234
      9 C4          1.8660   -5.0640    1.4460 c         1 MOL      0.364872
     10 O2          2.3420   -6.2050    1.6220 o         1 MOL     -0.575407
     11 C5          3.4180   -3.7890    2.9020 c3        1 MOL     -0.198266
     12 C6          4.2040   -3.2520    1.7280 c         1 MOL      0.765884
     13 O3          5.4540   -3.5400    1.6880 o         1 MOL     -0.732446
     14 O4          3.6820   -2.6280    0.8020 o         1 MOL     -0.732446
     15 H4          0.9200   -5.4750    3.8400 hn        1 MOL      0.327197
     16 H5          1.5600   -3.0980    2.2630 h1        1 MOL      0.034772
     17 H6          3.9380   -4.6960    3.2210 hc        1 MOL      0.004769
     18 H7          3.4040   -3.0350    3.6830 hc        1 MOL      0.004769
     19 N2          1.4810   -4.6200    0.2860 n         1 MOL     -0.037705
     20 C7          1.2050   -5.5130   -0.8450 c3        1 MOL     -0.188514
     21 C8          2.2310   -5.3360   -2.0240 c         1 MOL      0.678728
     22 O5          2.3710   -6.2910   -2.7790 o         1 MOL     -0.606385
     23 C9         -0.2280   -5.1170   -1.5210 c3        1 MOL      0.258083
     24 C10        -1.3310   -5.5020   -0.4920 c3        1 MOL      0.055848
     25 C11        -0.5720   -5.7190   -2.8840 c3        1 MOL     -0.395222
     26 C12        -2.7890   -5.0360   -0.8280 c3        1 MOL     -0.420549
     27 H8          1.1520   -3.6620    0.2170 hn        1 MOL     -0.174921
     28 H9          1.2500   -6.5850   -0.6380 h1        1 MOL      0.081338
     29 H10        -0.2900   -4.0390   -1.6580 hc        1 MOL      0.030767
     30 H11        -1.1290   -4.9850    0.4470 hc        1 MOL     -0.006262
     31 H12        -1.3110   -6.5570   -0.2130 hc        1 MOL     -0.006262
     32 H13        -0.4490   -6.8070   -2.8900 hc        1 MOL      0.092881
     33 H14        -1.5670   -5.3800   -3.1750 hc        1 MOL      0.092881
     34 H15         0.1130   -5.2760   -3.6080 hc        1 MOL      0.092881
     35 H16        -3.2560   -5.1720    0.1470 hc        1 MOL      0.115893
     36 H17        -2.7180   -3.9870   -1.1240 hc        1 MOL      0.115893
     37 H18        -3.1460   -5.5640   -1.7110 hc        1 MOL      0.115893
     38 N3          2.8320   -4.1460   -2.1150 n         1 MOL     -0.666453
     39 C13         3.6920   -3.7980   -3.2700 c3        1 MOL      0.152303
     40 C14         5.1340   -3.3100   -2.9430 c         1 MOL      0.383114
     41 O6          5.8530   -3.1450   -3.9010 o         1 MOL     -0.574053
     42 C15         2.9110   -2.7240   -4.0210 c3        1 MOL     -0.196046
     43 C16         2.3740   -1.5560   -3.1460 c         1 MOL      0.745097
     44 O7          2.6570   -1.4480   -1.9510 o         1 MOL     -0.718008
     45 O8          1.5070   -0.7970   -3.6520 o         1 MOL     -0.718008
     46 H19         2.6050   -3.4550   -1.4220 hn        1 MOL      0.495885
     47 H20         3.8790   -4.5450   -4.0460 h1        1 MOL      0.071459
     48 H21         2.0690   -3.2350   -4.5040 hc        1 MOL      0.050136
     49 H22         3.4640   -2.2190   -4.8130 hc        1 MOL      0.050136
     50 N4          5.5620   -3.0220   -1.7510 n         1 MOL     -0.128695
     51 C17         6.9430   -2.6860   -1.4160 c3        1 MOL     -0.221721
     52 C18         7.3780   -1.2120   -1.6920 c         1 MOL      0.390590
     53 O9          8.5450   -0.9770   -1.7990 o         1 MOL     -0.559708
     54 H23         4.9610   -3.2800   -0.9700 hn        1 MOL      0.173941
     55 H24         7.6010   -3.2900   -2.0410 h1        1 MOL      0.128818
     56 H25         7.2200   -3.0510   -0.4330 h1        1 MOL      0.128818
     57 N5          6.4360   -0.3100   -2.0340 n         1 MOL      0.014896
     58 C19         6.6250    1.0760   -2.5140 c3        1 MOL     -0.180907
     59 C20         7.1090    2.0970   -1.4980 c         1 MOL      0.490218
     60 O10         7.5490    3.1760   -1.8940 o         1 MOL     -0.534639
     61 C21         5.4260    1.6840   -3.1620 c3        1 MOL     -0.141695
     62 C22         4.1930    1.8480   -2.2540 c         1 MOL      0.775396
     63 O11         4.0380    1.2150   -1.1740 o         1 MOL     -0.709807
     64 O12         3.2790    2.5670   -2.7560 o         1 MOL     -0.709807
     65 H26         5.4960   -0.6530   -1.9070 hn        1 MOL      0.079073
     66 H27         7.4060    1.0420   -3.2790 h1        1 MOL      0.119921
     67 H28         5.1130    1.1670   -4.0760 hc        1 MOL      0.060638
     68 H29         5.7120    2.6800   -3.4820 hc        1 MOL      0.060638
     69 N6          7.0770    1.7800   -0.1670 n         1 MOL     -0.260409
     70 C23         7.4690    2.5980    0.9440 c3        1 MOL     -0.291365
     71 C24         6.3240    3.4620    1.5170 c         1 MOL      0.446780
     72 O13         6.4790    4.2650    2.4630 o         1 MOL     -0.601090
     73 H30         6.4750    0.9900    0.0380 hn        1 MOL      0.204264
     74 H31         8.3540    3.1520    0.6250 h1        1 MOL      0.149489
     75 H32         7.7450    1.9610    1.7780 h1        1 MOL      0.149489
     76 N7          5.0900    3.4230    0.9940 n         1 MOL     -0.056564
     77 C25         3.8780    4.2640    1.2150 c3        1 MOL     -0.043154
     78 C26         2.6900    3.3400    1.5520 c         1 MOL      0.332466
     79 O14         2.8430    2.1480    1.3910 o         1 MOL     -0.479563
     80 C27         3.4750    5.0730   -0.0690 c3        1 MOL     -0.073629
     81 C28         4.5940    6.1140   -0.2590 c3        1 MOL     -0.129178
     82 C29         4.2720    7.2100   -1.2580 c         1 MOL      0.644657
     83 N8          5.2910    7.7380   -1.8430 n         1 MOL     -0.736260
     84 O15         3.1080    7.5900   -1.4280 o         1 MOL     -0.581677
     85 H33         5.0010    2.7030    0.2900 hn        1 MOL      0.144959
     86 H34         4.0400    4.9250    2.0630 h1        1 MOL      0.077010
     87 H35         2.4890    5.5240    0.0630 hc        1 MOL      0.072641
     88 H36         3.5080    4.3910   -0.9150 hc        1 MOL      0.072641
     89 H37         5.4480    5.5580   -0.6470 hc        1 MOL      0.046501
     90 H38         4.8580    6.5910    0.6880 hc        1 MOL      0.046501
     91 H39         6.2480    7.5100   -1.6070 hn        1 MOL      0.334082
     92 H40         5.1440    8.4850   -2.5130 hn        1 MOL      0.334082
     93 N9          1.5360    3.8050    2.0840 n         1 MOL     -0.195579
     94 C30         0.3380    3.0200    2.4180 c3        1 MOL     -0.063631
     95 C31        -0.7170    3.3870    1.4260 c         1 MOL      0.416252
     96 O16        -0.9870    4.5160    1.1080 o         1 MOL     -0.571242
     97 C32        -0.1110    3.3130    3.9460 c3        1 MOL      0.214966
     98 C33        -1.0730    2.1460    4.2840 c3        1 MOL     -0.284501
     99 C34         1.1270    3.3090    4.8830 c3        1 MOL     -0.284501
    100 H41         1.4600    4.8100    2.1590 hn        1 MOL      0.211991
    101 H42         0.5350    1.9550    2.3070 h1        1 MOL      0.127010
    102 H43        -0.5930    4.2770    4.1070 hc        1 MOL     -0.021373
    103 H44        -1.8930    2.0070    3.5760 hc        1 MOL      0.060382
    104 H45        -0.5820    1.1700    4.3270 hc        1 MOL      0.060382
    105 H46        -1.4810    2.2820    5.2850 hc        1 MOL      0.060382
    106 H47         1.4890    2.2890    4.7060 hc        1 MOL      0.060382
    107 H48         1.9200    4.0020    4.6290 hc        1 MOL      0.060382
    108 H49         0.8420    3.3240    5.9270 hc        1 MOL      0.060382
    109 N10        -1.3190    2.3810    0.7300 n         1 MOL     -0.009830
    110 C35        -2.4470    2.6700   -0.1710 c3        1 MOL      0.085167
    111 C36        -3.8610    2.5760    0.5470 c         1 MOL      0.257422
    112 O17        -3.9310    1.9170    1.5720 o         1 MOL     -0.302047
    113 C37        -2.3940    1.5920   -1.2690 c3        1 MOL     -0.526918
    114 C38        -3.4770    1.6460   -2.2460 c         1 MOL      0.911591
    115 N11        -3.5590    2.6680   -3.0570 n         1 MOL     -0.859378
    116 O18        -4.3000    0.7600   -2.3570 o         1 MOL     -0.597269
    117 H50        -0.9560    1.4780    0.9720 hn        1 MOL     -0.009063
    118 H51        -2.4200    3.6600   -0.6210 h1        1 MOL      0.049291
    119 H52        -2.2980    0.6020   -0.8180 hc        1 MOL      0.155978
    120 H53        -1.4430    1.7070   -1.7860 hc        1 MOL      0.155978
    121 H54        -2.9500    3.4540   -2.8910 hn        1 MOL      0.365810
    122 H55        -4.0570    2.6410   -3.9340 hn        1 MOL      0.365810
    123 N12        -4.9360    3.1950    0.0370 n         1 MOL     -0.207452
    124 C39        -6.2720    3.1630    0.6060 c3        1 MOL     -0.002829
    125 C40        -6.9020    1.7560    0.9040 c         1 MOL      0.435518
    126 O19        -7.5160    1.5280    1.9050 o         1 MOL     -0.569648
    127 C41        -7.3270    3.9280   -0.2260 c3        1 MOL     -0.173207
    128 C42        -7.7130    3.2990   -1.5560 ca        1 MOL     -0.014993
    129 C43        -6.9630    3.6150   -2.6940 ca        1 MOL     -0.146692
    130 C44        -8.7350    2.3880   -1.6620 ca        1 MOL     -0.146692
    131 C45        -7.3130    3.0580   -3.9140 ca        1 MOL     -0.303000
    132 C46        -9.0730    1.8240   -2.8620 ca        1 MOL     -0.303000
    133 C47        -8.3580    2.1430   -4.0290 ca        1 MOL      0.462997
    134 O20        -8.7540    1.5020   -5.1390 oh        1 MOL     -0.581860
    135 H56        -4.7370    3.7400   -0.7910 hn        1 MOL      0.178123
    136 H57        -6.1930    3.6620    1.5780 h1        1 MOL      0.062900
    137 H58        -7.1400    5.0110   -0.2610 hc        1 MOL      0.078727
    138 H59        -8.2220    3.8680    0.3880 hc        1 MOL      0.078727
    139 H60        -6.1780    4.3520   -2.5670 ha        1 MOL      0.130689
    140 H61        -9.2070    2.1450   -0.7190 ha        1 MOL      0.130689
    141 H62        -6.7440    3.3040   -4.7970 ha        1 MOL      0.144335
    142 H63        -9.8190    1.0550   -2.8990 ha        1 MOL      0.144335
    143 H64        -9.3320    0.7500   -4.9920 ho        1 MOL      0.433018
    144 N13        -6.5020    0.7030    0.1110 n         1 MOL      0.077842
    145 C48        -6.9140   -0.7090    0.3320 c3        1 MOL     -0.245270
    146 C49        -5.8860   -1.5320    1.1550 c         1 MOL      0.467735
    147 O21        -6.1550   -2.6000    1.6690 o         1 MOL     -0.524240
    148 C50        -7.0760   -1.3550   -1.0770 c3        1 MOL     -0.047677
    149 C51        -7.7660   -2.7140   -0.9860 c3        1 MOL     -0.300110
    150 C52        -8.3010   -3.0930   -2.2900 c         1 MOL      0.824256
    151 O22        -9.4520   -2.6540   -2.5260 o         1 MOL     -0.787068
    152 O23        -7.7810   -3.9080   -3.0430 o         1 MOL     -0.787068
    153 H65        -5.8050    0.9160   -0.5880 hn        1 MOL      0.123864
    154 H66        -7.8770   -0.6590    0.8490 h1        1 MOL      0.158007
    155 H67        -6.1150   -1.5240   -1.5680 hc        1 MOL      0.066704
    156 H68        -7.6070   -0.6960   -1.7590 hc        1 MOL      0.066704
    157 H69        -8.5120   -2.7870   -0.1830 hc        1 MOL      0.059553
    158 H70        -6.9800   -3.4500   -0.8060 hc        1 MOL      0.059553
    159 N14        -4.7280   -0.9350    1.4250 n         1 MOL     -0.129564
    160 C53        -3.8310   -1.4440    2.4390 c3        1 MOL     -0.066743
    161 C54        -4.2520   -0.8080    3.7710 c         1 MOL      0.403177
    162 O24        -4.2090   -1.5320    4.7960 o         1 MOL     -0.582249
    163 C55        -2.3120   -1.0700    2.2620 c3        1 MOL     -0.007032
    164 C56        -1.6610   -1.7840    1.1080 c3        1 MOL     -0.038646
    165 C57        -0.2320   -1.1930    0.8700 c         1 MOL      0.700281
    166 O25         0.6530   -1.9240    0.2980 o         1 MOL     -0.616708
    167 O26         0.0040   -0.0000    1.1970 o         1 MOL     -0.616708
    168 H71        -4.7280    0.0240    1.0990 hn        1 MOL     -0.024413
    169 H72        -3.9130   -2.5240    2.4610 h1        1 MOL      0.101209
    170 H73        -1.8780   -1.4030    3.2080 hc        1 MOL      0.033220
    171 H74        -2.3660    0.0110    2.1650 hc        1 MOL      0.033220
    172 H75        -2.2360   -1.5870    0.2040 hc        1 MOL      0.029565
    173 H76        -1.5690   -2.8620    1.2570 hc        1 MOL      0.029565
    174 N15        -4.5940    0.4350    3.8980 n         1 MOL      0.015624
    175 C58        -5.0770    1.0110    5.1380 c3        1 MOL     -0.305483
    176 H77        -4.9240    2.0900    5.1200 h1        1 MOL      0.095969
    177 H78        -6.1390    0.7980    5.2490 h1        1 MOL      0.095969
    178 H79        -4.5290    0.5810    5.9770 h1        1 MOL      0.095969
    179 H80        -4.6860    1.0860    3.1330 hn        1 MOL      0.134972
    180 Ca1         2.5980   -0.2560    0.2590 Ca        1 MOL      1.739666
    181 O27         2.4150   -0.7190    2.9260 oh        1 MOL     -0.923370
    182 H81         1.9560   -1.2270    3.5930 ho        1 MOL      0.431966
    183 H82         3.0030   -0.1500    3.4160 ho        1 MOL      0.431966
    184 O28         5.0060    0.3940    1.6380 oh        1 MOL     -0.923370
    185 H83         5.8380   -0.0710    1.6100 ho        1 MOL      0.431966
    186 H84         4.9320    0.7200    2.5310 ho        1 MOL      0.431966
    187 O29         1.2530    1.0610   -1.6810 oh        1 MOL     -0.923370
    188 H85         1.8440    1.7410   -1.9880 ho        1 MOL      0.431966
    189 H86         1.2430    0.4120   -2.3960 ho        1 MOL      0.431966
@<TRIPOS>BOND
     1    1    2 1   
     2    1    4 1   
     3    1    5 1   
     4    1    6 1   
     5    2    3 2   
     6    2    7 1   
     7    7    8 1   
     8    7   15 1   
     9    8    9 1   
    10    8   11 1   
    11    8   16 1   
    12    9   10 2   
    13    9   19 1   
    14   11   12 1   
    15   11   17 1   
    16   11   18 1   
    17   12   13 1   
    18   12   14 1   
    19   19   20 1   
    20   19   27 1   
    21   20   21 1   
    22   20   23 1   
    23   20   28 1   
    24   21   22 2   
    25   21   38 1   
    26   23   24 1   
    27   23   25 1   
    28   23   29 1   
    29   24   26 1   
    30   24   30 1   
    31   24   31 1   
    32   25   32 1   
    33   25   33 1   
    34   25   34 1   
    35   26   35 1   
    36   26   36 1   
    37   26   37 1   
    38   38   39 1   
    39   38   46 1   
    40   39   40 1   
    41   39   42 1   
    42   39   47 1   
    43   40   41 2   
    44   40   50 1   
    45   42   43 1   
    46   42   48 1   
    47   42   49 1   
    48   43   44 1   
    49   43   45 1   
    50   50   51 1   
    51   50   54 1   
    52   51   52 1   
    53   51   55 1   
    54   51   56 1   
    55   52   53 2   
    56   52   57 1   
    57   57   58 1   
    58   57   65 1   
    59   58   59 1   
    60   58   61 1   
    61   58   66 1   
    62   59   60 2   
    63   59   69 1   
    64   61   62 1   
    65   61   67 1   
    66   61   68 1   
    67   62   63 1   
    68   62   64 1   
    69   69   70 1   
    70   69   73 1   
    71   70   71 1   
    72   70   74 1   
    73   70   75 1   
    74   71   72 2   
    75   71   76 1   
    76   76   77 1   
    77   76   85 1   
    78   77   78 1   
    79   77   80 1   
    80   77   86 1   
    81   78   79 2   
    82   78   93 1   
    83   80   81 1   
    84   80   87 1   
    85   80   88 1   
    86   81   82 1   
    87   81   89 1   
    88   81   90 1   
    89   82   83 1   
    90   82   84 2   
    91   83   91 1   
    92   83   92 1   
    93   93   94 1   
    94   93  100 1   
    95   94   95 1   
    96   94   97 1   
    97   94  101 1   
    98   95   96 2   
    99   95  109 1   
   100   97   98 1   
   101   97   99 1   
   102   97  102 1   
   103   98  103 1   
   104   98  104 1   
   105   98  105 1   
   106   99  106 1   
   107   99  107 1   
   108   99  108 1   
   109  109  110 1   
   110  109  117 1   
   111  110  111 1   
   112  110  113 1   
   113  110  118 1   
   114  111  112 2   
   115  111  123 1   
   116  113  114 1   
   117  113  119 1   
   118  113  120 1   
   119  114  115 1   
   120  114  116 2   
   121  115  121 1   
   122  115  122 1   
   123  123  124 1   
   124  123  135 1   
   125  124  125 1   
   126  124  127 1   
   127  124  136 1   
   128  125  126 2   
   129  125  144 1   
   130  127  128 1   
   131  127  137 1   
   132  127  138 1   
   133  128  129 ar  
   134  128  130 ar  
   135  129  131 ar  
   136  129  139 1   
   137  130  132 ar  
   138  130  140 1   
   139  131  133 ar  
   140  131  141 1   
   141  132  133 ar  
   142  132  142 1   
   143  133  134 1   
   144  134  143 1   
   145  144  145 1   
   146  144  153 1   
   147  145  146 1   
   148  145  148 1   
   149  145  154 1   
   150  146  147 2   
   151  146  159 1   
   152  148  149 1   
   153  148  155 1   
   154  148  156 1   
   155  149  150 1   
   156  149  157 1   
   157  149  158 1   
   158  150  151 1   
   159  150  152 1   
   160  159  160 1   
   161  159  168 1   
   162  160  161 1   
   163  160  163 1   
   164  160  169 1   
   165  161  162 2   
   166  161  174 1   
   167  163  164 1   
   168  163  170 1   
   169  163  171 1   
   170  164  165 1   
   171  164  172 1   
   172  164  173 1   
   173  165  166 1   
   174  165  167 1   
   175  174  175 1   
   176  174  179 1   
   177  175  176 1   
   178  175  177 1   
   179  175  178 1   
   180  181  182 1   
   181  181  183 1   
   182  184  185 1   
   183  184  186 1   
   184  187  188 1   
   185  187  189 1   
@<TRIPOS>SUBSTRUCTURE
     1 MOL         1 TEMP              0 ****  ****    0 ROOT
