@<TRIPOS>MOLECULE
MOL
  189   185     1     0     0
SMALL
resp


@<TRIPOS>ATOM
      1 C1          3.3350   -4.8710    6.0120 c3        1 MOL     -0.372406
      2 C2          3.0170   -4.6740    4.4520 c         1 MOL      0.731004
      3 O1          1.8440   -4.6830    4.1160 o         1 MOL     -0.570776
      4 H1          2.6740   -5.6340    6.4230 hc        1 MOL      0.080552
      5 H2          4.3710   -5.1850    6.1340 hc        1 MOL      0.080552
      6 H3          3.1760   -3.9300    6.5380 hc        1 MOL      0.080552
      7 N1          4.0070   -4.5360    3.5960 n         1 MOL     -0.697541
      8 C3          3.8880   -3.8530    2.2430 c3        1 MOL      0.370263
      9 C4          3.5610   -4.7720    1.1100 c         1 MOL      0.632310
     10 O2          4.0120   -5.9340    1.1890 o         1 MOL     -0.586765
     11 C5          5.1810   -3.0690    1.9820 c3        1 MOL     -0.419965
     12 C6          5.2740   -2.3720    0.6280 c         1 MOL      0.729002
     13 O3          4.3270   -1.7110    0.1290 o         1 MOL     -0.639160
     14 O4          6.2900   -2.6820   -0.0180 o         1 MOL     -0.639160
     15 H4          4.9390   -4.7010    3.9660 hn        1 MOL      0.338512
     16 H5          3.1170   -3.0810    2.2160 h1        1 MOL     -0.008540
     17 H6          5.9870   -3.7960    2.0860 hc        1 MOL      0.051552
     18 H7          5.1120   -2.2230    2.6640 hc        1 MOL      0.051552
     19 N2          2.7330   -4.3590    0.0520 n         1 MOL     -0.475957
     20 C7          2.3140   -5.2070   -1.0470 c3        1 MOL      0.091698
     21 C8          2.9710   -4.5890   -2.3280 c         1 MOL      0.487485
     22 O5          3.3260   -5.4220   -3.2000 o         1 MOL     -0.581694
     23 C9          0.7690   -5.3040   -1.2280 c3        1 MOL      0.298358
     24 C10         0.0340   -5.7500   -0.0180 c3        1 MOL      0.003291
     25 C11         0.5410   -6.2530   -2.4240 c3        1 MOL     -0.358134
     26 C12         0.2760   -7.2120    0.4740 c3        1 MOL     -0.273150
     27 H8          2.2740   -3.4620    0.0890 hn        1 MOL      0.194839
     28 H9          2.6670   -6.2240   -0.8710 h1        1 MOL      0.039422
     29 H10         0.4360   -4.3220   -1.5580 hc        1 MOL     -0.015099
     30 H11        -1.0420   -5.6850   -0.2030 hc        1 MOL      0.029207
     31 H12         0.3900   -5.0490    0.7490 hc        1 MOL      0.029207
     32 H13         0.9420   -5.9220   -3.3860 hc        1 MOL      0.071757
     33 H14         1.1780   -7.1140   -2.2450 hc        1 MOL      0.071757
     34 H15        -0.5030   -6.5390   -2.5490 hc        1 MOL      0.071757
     35 H16        -0.1130   -7.9490   -0.2130 hc        1 MOL      0.056692
     36 H17         1.3300   -7.4390    0.6500 hc        1 MOL      0.056692
     37 H18        -0.2090   -7.3690    1.4420 hc        1 MOL      0.056692
     38 N3          3.0450   -3.2150   -2.5240 n         1 MOL     -0.206814
     39 C13         3.3100   -2.5640   -3.8130 c3        1 MOL      0.029731
     40 C14         4.5760   -1.7050   -3.9010 c         1 MOL      0.365094
     41 O6          5.0430   -1.3100   -4.9610 o         1 MOL     -0.555678
     42 C15         2.1390   -1.7640   -4.3010 c3        1 MOL     -0.177587
     43 C16         1.7490   -0.5920   -3.3090 c         1 MOL      0.766752
     44 O7          2.5860   -0.1160   -2.4890 o         1 MOL     -0.679900
     45 O8          0.5630   -0.1970   -3.3580 o         1 MOL     -0.679900
     46 H19         2.6400   -2.6210   -1.8230 hn        1 MOL      0.098936
     47 H20         3.4280   -3.3090   -4.6030 h1        1 MOL      0.079843
     48 H21         1.3080   -2.4410   -4.4590 hc        1 MOL      0.060064
     49 H22         2.4430   -1.2590   -5.2240 hc        1 MOL      0.060064
     50 N4          5.2370   -1.3710   -2.7640 n         1 MOL     -0.051000
     51 C17         6.4820   -0.6480   -2.7670 c3        1 MOL     -0.149850
     52 C18         6.4260    0.8540   -2.8280 c         1 MOL      0.592296
     53 O9          7.4530    1.5280   -2.9170 o         1 MOL     -0.650100
     54 H23         4.9170   -1.8010   -1.9090 hn        1 MOL      0.065079
     55 H24         7.0430   -0.9730   -3.6390 h1        1 MOL      0.068253
     56 H25         7.0280   -0.9140   -1.8580 h1        1 MOL      0.068253
     57 N5          5.2010    1.4370   -2.8560 n         1 MOL     -0.289502
     58 C19         4.9560    2.8850   -3.0340 c3        1 MOL      0.043304
     59 C20         5.3900    3.7740   -1.8180 c         1 MOL      0.428870
     60 O10         5.2010    5.0130   -1.9120 o         1 MOL     -0.569720
     61 C21         3.5020    3.0720   -3.3680 c3        1 MOL     -0.315196
     62 C22         2.6250    2.9260   -2.0560 c         1 MOL      0.738365
     63 O11         3.0540    2.4090   -1.0200 o         1 MOL     -0.718584
     64 O12         1.4290    3.3600   -2.1060 o         1 MOL     -0.718584
     65 H26         4.3910    0.8480   -2.8260 hn        1 MOL      0.178128
     66 H27         5.5360    3.1420   -3.9300 h1        1 MOL      0.078126
     67 H28         3.1380    2.3600   -4.1150 hc        1 MOL      0.103260
     68 H29         3.3960    4.0660   -3.7970 hc        1 MOL      0.103260
     69 N6          6.0530    3.2330   -0.8150 n         1 MOL     -0.297325
     70 C23         6.4510    3.9380    0.4190 c3        1 MOL     -0.212791
     71 C24         5.3780    4.3860    1.4200 c         1 MOL      0.357282
     72 O13         5.7430    4.7780    2.5510 o         1 MOL     -0.559598
     73 H30         6.1940    2.2320   -0.8670 hn        1 MOL      0.294541
     74 H31         7.0500    4.7760    0.0570 h1        1 MOL      0.129928
     75 H32         7.2960    3.4250    0.8920 h1        1 MOL      0.129928
     76 N7          4.1040    4.1250    1.1130 n         1 MOL     -0.084161
     77 C25         2.9580    4.3250    2.0620 c3        1 MOL     -0.030310
     78 C26         2.0250    3.1650    2.2720 c         1 MOL      0.443450
     79 O14         2.1130    2.2330    1.6080 o         1 MOL     -0.448073
     80 C27         2.1410    5.4830    1.5430 c3        1 MOL      0.069587
     81 C28         2.9150    6.7700    1.1910 c3        1 MOL     -0.386518
     82 C29         1.8570    7.7580    1.1640 c         1 MOL      0.753104
     83 N8          1.1030    7.9000    0.0930 n         1 MOL     -0.844429
     84 O15         1.5920    8.4630    2.1020 o         1 MOL     -0.615405
     85 H33         3.8610    3.7870    0.1950 hn        1 MOL      0.265743
     86 H34         3.3920    4.7230    2.9820 h1        1 MOL      0.042244
     87 H35         1.2970    5.6940    2.2040 hc        1 MOL      0.030582
     88 H36         1.7100    5.1460    0.5940 hc        1 MOL      0.030582
     89 H37         3.4330    6.5540    0.2600 hc        1 MOL      0.119636
     90 H38         3.5870    7.0280    2.0150 hc        1 MOL      0.119636
     91 H39         1.3100    7.3320   -0.7130 hn        1 MOL      0.369664
     92 H40         0.1920    8.3220    0.1820 hn        1 MOL      0.369664
     93 N9          1.0940    3.2330    3.2000 n         1 MOL     -0.476109
     94 C30        -0.0130    2.1740    3.2230 c3        1 MOL      0.079164
     95 C31        -1.2300    2.7520    2.4720 c         1 MOL      0.450514
     96 O16        -1.6110    3.9230    2.6260 o         1 MOL     -0.592723
     97 C32        -0.3950    1.8610    4.6400 c3        1 MOL      0.172164
     98 C33        -1.6100    0.8490    4.7010 c3        1 MOL     -0.164756
     99 C34         0.6790    1.2810    5.4530 c3        1 MOL     -0.164756
    100 H41         0.9550    4.0540    3.7640 hn        1 MOL      0.283477
    101 H42         0.2630    1.2180    2.7690 h1        1 MOL      0.116650
    102 H43        -0.8620    2.7170    5.1130 hc        1 MOL     -0.012905
    103 H44        -1.4940    0.0540    3.9620 hc        1 MOL      0.028653
    104 H45        -1.8260    0.4730    5.6950 hc        1 MOL      0.028653
    105 H46        -2.5260    1.3400    4.3810 hc        1 MOL      0.028653
    106 H47         0.2670    1.0400    6.4270 hc        1 MOL      0.028653
    107 H48         1.1260    0.3530    5.0850 hc        1 MOL      0.028653
    108 H49         1.5110    1.9700    5.6330 hc        1 MOL      0.028653
    109 N10        -1.9180    1.9320    1.6650 n         1 MOL     -0.136099
    110 C35        -3.1090    2.3610    0.9060 c3        1 MOL      0.214446
    111 C36        -4.2290    1.3990    1.2620 c         1 MOL      0.165927
    112 O17        -3.9950    0.2310    1.5070 o         1 MOL     -0.261723
    113 C37        -2.8400    2.4000   -0.6410 c3        1 MOL     -0.380959
    114 C38        -4.0030    2.7890   -1.5100 c         1 MOL      0.668799
    115 N11        -4.4240    4.0120   -1.3770 n         1 MOL     -0.807610
    116 O18        -4.5370    1.9520   -2.2340 o         1 MOL     -0.474766
    117 H50        -1.5240    1.0220    1.5030 hn        1 MOL      0.030363
    118 H51        -3.3320    3.3940    1.1810 h1        1 MOL      0.013107
    119 H52        -2.5810    1.3860   -0.9460 hc        1 MOL      0.140984
    120 H53        -1.9370    2.9500   -0.9000 hc        1 MOL      0.140984
    121 H54        -3.7930    4.6050   -0.8500 hn        1 MOL      0.359268
    122 H55        -4.9000    4.3950   -2.1760 hn        1 MOL      0.359268
    123 N12        -5.4630    1.8670    1.0690 n         1 MOL     -0.223017
    124 C39        -6.5810    1.0390    1.6030 c3        1 MOL      0.043308
    125 C40        -6.7080   -0.4480    1.0820 c         1 MOL      0.313627
    126 O19        -7.2580   -1.2630    1.8390 o         1 MOL     -0.561829
    127 C41        -7.8530    1.7550    1.3800 c3        1 MOL     -0.254980
    128 C42        -8.2760    2.0070    0.0030 ca        1 MOL      0.005907
    129 C43        -8.9530    1.0880   -0.8010 ca        1 MOL     -0.130659
    130 C44        -7.8270    3.1760   -0.6160 ca        1 MOL     -0.130659
    131 C45        -9.3880    1.3930   -2.0940 ca        1 MOL     -0.361912
    132 C46        -8.2720    3.5200   -1.9110 ca        1 MOL     -0.361912
    133 C47        -9.0170    2.5870   -2.6400 ca        1 MOL      0.521520
    134 O20        -9.4820    2.9180   -3.8810 oh        1 MOL     -0.581573
    135 H56        -5.6480    2.8600    0.9920 hn        1 MOL      0.200938
    136 H57        -6.3120    0.8950    2.6520 h1        1 MOL      0.080281
    137 H58        -7.7580    2.5910    2.0740 hc        1 MOL      0.099401
    138 H59        -8.5640    1.1570    1.9500 hc        1 MOL      0.099401
    139 H60        -9.2150    0.1570   -0.3040 ha        1 MOL      0.135679
    140 H61        -7.0540    3.7810   -0.1660 ha        1 MOL      0.135679
    141 H62        -9.9210    0.6470   -2.6540 ha        1 MOL      0.169041
    142 H63        -7.9540    4.4690   -2.3280 ha        1 MOL      0.169041
    143 H64       -10.0000    2.2060   -4.2740 ho        1 MOL      0.398973
    144 N13        -6.1800   -0.7670   -0.1030 n         1 MOL     -0.000497
    145 C48        -6.3040   -2.1130   -0.6970 c3        1 MOL      0.169707
    146 C49        -5.2310   -3.0000   -0.0100 c         1 MOL      0.370404
    147 O21        -5.3750   -4.2230    0.0510 o         1 MOL     -0.524427
    148 C50        -6.3650   -1.9940   -2.2560 c3        1 MOL     -0.302173
    149 C51        -5.0860   -1.3970   -2.8620 c3        1 MOL      0.000911
    150 C52        -5.0050   -1.6610   -4.3440 c         1 MOL      0.735434
    151 O22        -3.8950   -1.4640   -4.8510 o         1 MOL     -0.757153
    152 O23        -5.9780   -2.0200   -5.0230 o         1 MOL     -0.757153
    153 H65        -5.8010   -0.0290   -0.6870 hn        1 MOL      0.242087
    154 H66        -7.2250   -2.5570   -0.3140 h1        1 MOL     -0.010977
    155 H67        -7.2240   -1.3460   -2.4540 hc        1 MOL      0.065179
    156 H68        -6.4200   -2.9740   -2.7350 hc        1 MOL      0.065179
    157 H69        -4.3140   -2.0680   -2.4990 hc        1 MOL     -0.020215
    158 H70        -4.8470   -0.4060   -2.4890 hc        1 MOL     -0.020215
    159 N14        -4.1250   -2.3990    0.4950 n         1 MOL     -0.039706
    160 C53        -3.2240   -3.2550    1.2330 c3        1 MOL     -0.329386
    161 C54        -3.8260   -3.4930    2.5980 c         1 MOL      0.531226
    162 O24        -3.5620   -4.5220    3.1620 o         1 MOL     -0.560384
    163 C55        -1.9310   -2.5290    1.4310 c3        1 MOL      0.091007
    164 C56        -1.2420   -2.0580    0.1490 c3        1 MOL     -0.142036
    165 C57         0.1330   -1.4970    0.3400 c         1 MOL      0.799788
    166 O25         0.3300   -0.6250    1.2160 o         1 MOL     -0.717651
    167 O26         1.1520   -2.0260   -0.1460 o         1 MOL     -0.717651
    168 H71        -3.9330   -1.4120    0.4310 hn        1 MOL      0.057907
    169 H72        -2.9690   -4.1400    0.6540 h1        1 MOL      0.175864
    170 H73        -1.1630   -3.1890    1.8430 hc        1 MOL      0.003109
    171 H74        -2.0370   -1.6640    2.0850 hc        1 MOL      0.003109
    172 H75        -1.8570   -1.3110   -0.3400 hc        1 MOL      0.031163
    173 H76        -1.1500   -2.9080   -0.5370 hc        1 MOL      0.031163
    174 N15        -4.6010   -2.5900    3.1140 n         1 MOL     -0.125442
    175 C58        -5.0850   -2.6200    4.5110 c3        1 MOL     -0.217605
    176 H77        -5.8000   -3.4340    4.6300 h1        1 MOL      0.086293
    177 H78        -4.2430   -2.7760    5.1850 h1        1 MOL      0.086293
    178 H79        -5.5700   -1.6730    4.7480 h1        1 MOL      0.086293
    179 H80        -4.5700   -1.7090    2.6150 hn        1 MOL      0.122563
    180 Ca1         2.5410    0.1960    0.1590 Ca        1 MOL      1.656555
    181 O27         3.1410   -0.3140    2.6500 oh        1 MOL     -0.877513
    182 H81         3.9080   -0.3140    3.2200 ho        1 MOL      0.420752
    183 H82         2.4860   -0.8190    3.1350 ho        1 MOL      0.420752
    184 O28         0.2990    1.1510   -1.1940 oh        1 MOL     -0.877513
    185 H83         0.3040    0.6540   -2.0120 ho        1 MOL      0.420752
    186 H84         0.5170    2.0510   -1.4540 ho        1 MOL      0.420752
    187 O29         5.1270    0.8210    0.9570 oh        1 MOL     -0.877513
    188 H85         5.8670    0.2040    0.9210 ho        1 MOL      0.420752
    189 H86         4.9760    0.9660    1.8840 ho        1 MOL      0.420752
@<TRIPOS>BOND
     1    1    2 1   
     2    1    4 1   
     3    1    5 1   
     4    1    6 1   
     5    2    3 2   
     6    2    7 1   
     7    7    8 1   
     8    7   15 1   
     9    8    9 1   
    10    8   11 1   
    11    8   16 1   
    12    9   10 2   
    13    9   19 1   
    14   11   12 1   
    15   11   17 1   
    16   11   18 1   
    17   12   13 1   
    18   12   14 1   
    19   19   20 1   
    20   19   27 1   
    21   20   21 1   
    22   20   23 1   
    23   20   28 1   
    24   21   22 2   
    25   21   38 1   
    26   23   24 1   
    27   23   25 1   
    28   23   29 1   
    29   24   26 1   
    30   24   30 1   
    31   24   31 1   
    32   25   32 1   
    33   25   33 1   
    34   25   34 1   
    35   26   35 1   
    36   26   36 1   
    37   26   37 1   
    38   38   39 1   
    39   38   46 1   
    40   39   40 1   
    41   39   42 1   
    42   39   47 1   
    43   40   41 2   
    44   40   50 1   
    45   42   43 1   
    46   42   48 1   
    47   42   49 1   
    48   43   44 1   
    49   43   45 1   
    50   50   51 1   
    51   50   54 1   
    52   51   52 1   
    53   51   55 1   
    54   51   56 1   
    55   52   53 2   
    56   52   57 1   
    57   57   58 1   
    58   57   65 1   
    59   58   59 1   
    60   58   61 1   
    61   58   66 1   
    62   59   60 2   
    63   59   69 1   
    64   61   62 1   
    65   61   67 1   
    66   61   68 1   
    67   62   63 1   
    68   62   64 1   
    69   69   70 1   
    70   69   73 1   
    71   70   71 1   
    72   70   74 1   
    73   70   75 1   
    74   71   72 2   
    75   71   76 1   
    76   76   77 1   
    77   76   85 1   
    78   77   78 1   
    79   77   80 1   
    80   77   86 1   
    81   78   79 2   
    82   78   93 1   
    83   80   81 1   
    84   80   87 1   
    85   80   88 1   
    86   81   82 1   
    87   81   89 1   
    88   81   90 1   
    89   82   83 1   
    90   82   84 2   
    91   83   91 1   
    92   83   92 1   
    93   93   94 1   
    94   93  100 1   
    95   94   95 1   
    96   94   97 1   
    97   94  101 1   
    98   95   96 2   
    99   95  109 1   
   100   97   98 1   
   101   97   99 1   
   102   97  102 1   
   103   98  103 1   
   104   98  104 1   
   105   98  105 1   
   106   99  106 1   
   107   99  107 1   
   108   99  108 1   
   109  109  110 1   
   110  109  117 1   
   111  110  111 1   
   112  110  113 1   
   113  110  118 1   
   114  111  112 2   
   115  111  123 1   
   116  113  114 1   
   117  113  119 1   
   118  113  120 1   
   119  114  115 1   
   120  114  116 2   
   121  115  121 1   
   122  115  122 1   
   123  123  124 1   
   124  123  135 1   
   125  124  125 1   
   126  124  127 1   
   127  124  136 1   
   128  125  126 2   
   129  125  144 1   
   130  127  128 1   
   131  127  137 1   
   132  127  138 1   
   133  128  129 ar  
   134  128  130 ar  
   135  129  131 ar  
   136  129  139 1   
   137  130  132 ar  
   138  130  140 1   
   139  131  133 ar  
   140  131  141 1   
   141  132  133 ar  
   142  132  142 1   
   143  133  134 1   
   144  134  143 1   
   145  144  145 1   
   146  144  153 1   
   147  145  146 1   
   148  145  148 1   
   149  145  154 1   
   150  146  147 2   
   151  146  159 1   
   152  148  149 1   
   153  148  155 1   
   154  148  156 1   
   155  149  150 1   
   156  149  157 1   
   157  149  158 1   
   158  150  151 1   
   159  150  152 1   
   160  159  160 1   
   161  159  168 1   
   162  160  161 1   
   163  160  163 1   
   164  160  169 1   
   165  161  162 2   
   166  161  174 1   
   167  163  164 1   
   168  163  170 1   
   169  163  171 1   
   170  164  165 1   
   171  164  172 1   
   172  164  173 1   
   173  165  166 1   
   174  165  167 1   
   175  174  175 1   
   176  174  179 1   
   177  175  176 1   
   178  175  177 1   
   179  175  178 1   
   180  181  182 1   
   181  181  183 1   
   182  184  185 1   
   183  184  186 1   
   184  187  188 1   
   185  187  189 1   
@<TRIPOS>SUBSTRUCTURE
     1 MOL         1 TEMP              0 ****  ****    0 ROOT
