@<TRIPOS>MOLECULE
MOL
  179   176     1     0     0
SMALL
resp


@<TRIPOS>ATOM
      1 C1          0.9150    4.8020    4.7900 c3        1 MOL     -0.090093
      2 C2          0.5080    4.0040    3.5470 c         1 MOL      0.523023
      3 O1          1.4230    3.5760    2.8410 o         1 MOL     -0.536213
      4 H1          0.0920    4.8040    5.5050 hc        1 MOL      0.021476
      5 H2          1.7910    4.3430    5.2470 hc        1 MOL      0.021476
      6 H3          1.1490    5.8270    4.5040 hc        1 MOL      0.021476
      7 N1         -0.7710    3.6620    3.3590 n         1 MOL     -0.631658
      8 C3         -1.2870    2.9240    2.1650 c3        1 MOL      0.227394
      9 C4         -1.8850    3.9330    1.1430 c         1 MOL      0.542294
     10 O2         -3.0420    4.2690    1.1340 o         1 MOL     -0.506275
     11 C5         -2.3250    1.8800    2.5710 c3        1 MOL     -0.137232
     12 C6         -2.8150    1.1210    1.3560 c         1 MOL      0.758362
     13 O3         -2.0530    1.1650    0.3680 o         1 MOL     -0.753909
     14 O4         -3.9500    0.5210    1.4480 o         1 MOL     -0.753909
     15 H4         -1.3700    3.7770    4.1690 hn        1 MOL      0.350116
     16 H5         -0.4820    2.3580    1.6990 h1        1 MOL      0.023684
     17 H6         -3.1850    2.3130    3.0800 hc        1 MOL      0.020137
     18 H7         -1.7330    1.2200    3.2060 hc        1 MOL      0.020137
     19 N2         -0.9960    4.6680    0.4050 n         1 MOL     -0.540462
     20 C7         -1.3710    5.8780   -0.2940 c3        1 MOL      0.280915
     21 C8         -2.4820    5.7500   -1.2900 c         1 MOL      0.328842
     22 O5         -3.2940    6.6430   -1.4910 o         1 MOL     -0.538875
     23 C9         -0.2110    6.7480   -0.6960 c3        1 MOL     -0.375168
     24 C10         0.6610    7.1710    0.5570 c3        1 MOL      0.294477
     25 C11         1.6670    8.3640    0.4720 c3        1 MOL      0.006317
     26 C12         2.0170    8.7630    1.9220 c3        1 MOL      0.000453
     27 N3          2.9860    9.8790    1.8660 n4        1 MOL     -0.402554
     28 H8         -0.0280    4.3670    0.3870 hn        1 MOL      0.329999
     29 H9         -1.8680    6.5240    0.4400 h1        1 MOL      0.037338
     30 H10        -0.5210    7.7120   -1.0910 hc        1 MOL      0.101518
     31 H11         0.4010    6.1330   -1.3540 hc        1 MOL      0.101518
     32 H12         1.1070    6.3230    1.0630 hc        1 MOL     -0.058784
     33 H13        -0.0850    7.5380    1.2550 hc        1 MOL     -0.058784
     34 H14         1.1870    9.2100   -0.0200 hc        1 MOL      0.010760
     35 H15         2.5020    7.9870   -0.1060 hc        1 MOL      0.010760
     36 H16         2.4860    7.9130    2.4220 hx        1 MOL      0.104123
     37 H17         1.0700    9.0770    2.3460 hx        1 MOL      0.104123
     38 H18         2.6060   10.6540    1.3450 hn        1 MOL      0.340865
     39 H19         3.1890   10.2540    2.7810 hn        1 MOL      0.340865
     40 H20         3.8700    9.5880    1.4530 hn        1 MOL      0.340865
     41 N4         -2.6350    4.6130   -1.9200 n         1 MOL     -0.188749
     42 C13        -3.7370    4.1790   -2.8120 c3        1 MOL      0.001782
     43 C14        -5.0160    3.6590   -2.1320 c         1 MOL      0.435030
     44 O6         -6.1570    3.6780   -2.6180 o         1 MOL     -0.528398
     45 C15        -3.2300    3.1930   -3.8750 c3        1 MOL     -0.203302
     46 C16        -2.5830    2.0110   -3.2780 c         1 MOL      0.628043
     47 O7         -3.2700    1.0390   -2.8810 o         1 MOL     -0.709465
     48 O8         -1.3850    2.0940   -2.8230 o         1 MOL     -0.709465
     49 H21        -1.9410    3.9000   -1.7640 hn        1 MOL      0.207998
     50 H22        -4.0810    5.0290   -3.3990 h1        1 MOL      0.102107
     51 H23        -2.4700    3.7060   -4.4620 hc        1 MOL      0.065610
     52 H24        -4.0540    2.9250   -4.5260 hc        1 MOL      0.065610
     53 N5         -4.8960    3.2820   -0.8260 n         1 MOL     -0.104815
     54 C17        -6.0740    2.7760   -0.0730 c3        1 MOL     -0.373117
     55 C18        -6.6370    1.4420   -0.5720 c         1 MOL      0.605332
     56 O9         -7.8340    1.2310   -0.3380 o         1 MOL     -0.587905
     57 H25        -3.9860    3.3580   -0.3860 hn        1 MOL      0.221178
     58 H26        -6.8800    3.4980   -0.1920 h1        1 MOL      0.151469
     59 H27        -5.8590    2.5870    0.9800 h1        1 MOL      0.151469
     60 N6         -5.8750    0.5450   -1.1610 n         1 MOL     -0.160033
     61 C19        -6.3810   -0.8630   -1.3470 c3        1 MOL     -0.142015
     62 C20        -6.4150   -1.8420   -0.0910 c         1 MOL      0.408898
     63 O10        -6.8520   -2.9960   -0.2920 o         1 MOL     -0.462239
     64 C21        -5.7810   -1.5150   -2.5850 c3        1 MOL     -0.185421
     65 C22        -4.2890   -1.8510   -2.4580 c         1 MOL      0.756622
     66 N7         -3.7250   -2.2260   -3.6000 n         1 MOL     -0.845714
     67 O11        -3.6340   -1.7910   -1.4200 o         1 MOL     -0.586957
     68 H28        -4.9080    0.6900   -1.4300 hn        1 MOL      0.115489
     69 H29        -7.4440   -0.7760   -1.6130 h1        1 MOL      0.134688
     70 H30        -5.8940   -0.8570   -3.4460 hc        1 MOL      0.082195
     71 H31        -6.2760   -2.4720   -2.7120 hc        1 MOL      0.082195
     72 H32        -4.3150   -2.1140   -4.4070 hn        1 MOL      0.362099
     73 H33        -2.8250   -2.6850   -3.5660 hn        1 MOL      0.362099
     74 N8         -6.0050   -1.3530    1.0830 n         1 MOL     -0.326552
     75 C23        -5.9100   -2.1130    2.3030 c3        1 MOL     -0.090223
     76 C24        -4.5230   -2.7680    2.5730 c         1 MOL      0.598609
     77 O12        -4.3220   -3.4150    3.6080 o         1 MOL     -0.610870
     78 H34        -5.4630   -0.5110    1.1200 hn        1 MOL      0.325029
     79 H35        -6.6580   -2.8930    2.4170 h1        1 MOL      0.093182
     80 H36        -6.0180   -1.5010    3.1990 h1        1 MOL      0.093182
     81 N9         -3.5200   -2.6980    1.7120 n         1 MOL     -0.470832
     82 C25        -2.1980   -3.4820    1.8030 c3        1 MOL      0.329857
     83 C26        -0.9790   -2.6230    1.3540 c         1 MOL      0.449868
     84 O13        -1.0970   -1.6800    0.5250 o         1 MOL     -0.662091
     85 C27        -2.1730   -4.6400    0.8140 c3        1 MOL      0.047846
     86 C28        -3.2540   -5.6660    0.9990 ca        1 MOL      0.015258
     87 C29        -4.4840   -5.4840    0.3940 ca        1 MOL     -0.132471
     88 C30        -2.9390   -6.8740    1.6570 ca        1 MOL     -0.132471
     89 C31        -5.4330   -6.5080    0.3470 ca        1 MOL     -0.303990
     90 C32        -3.9460   -7.8950    1.6670 ca        1 MOL     -0.303990
     91 C33        -5.1790   -7.7060    1.0140 ca        1 MOL      0.395313
     92 O14        -6.0720   -8.7220    0.9350 oh        1 MOL     -0.464837
     93 H37        -3.5790   -2.1700    0.8580 hn        1 MOL      0.340446
     94 H38        -2.0500   -3.8520    2.8190 h1        1 MOL      0.011807
     95 H39        -1.2380   -5.1520    1.0370 hc        1 MOL     -0.035733
     96 H40        -2.0540   -4.2860   -0.2100 hc        1 MOL     -0.035733
     97 H41        -4.6570   -4.5040   -0.0330 ha        1 MOL      0.111257
     98 H42        -1.9730   -7.0990    2.0880 ha        1 MOL      0.111257
     99 H43        -6.3020   -6.3440   -0.2770 ha        1 MOL      0.152804
    100 H44        -3.7220   -8.8550    2.1190 ha        1 MOL      0.152804
    101 H45        -5.7650   -9.4120    1.5270 ho        1 MOL      0.328126
    102 N10         0.1990   -2.8480    1.9360 n         1 MOL     -0.594297
    103 C34         1.4390   -2.1690    1.5960 c3        1 MOL      0.232794
    104 C35         2.5380   -3.2060    1.1330 c         1 MOL      0.495599
    105 O15         2.9340   -4.1470    1.8570 o         1 MOL     -0.532142
    106 C36         1.8620   -1.4570    2.8500 c3        1 MOL     -0.134128
    107 C37         0.9110   -0.2240    3.2480 c3        1 MOL      0.210630
    108 C38         3.3170   -0.9460    2.8110 c3        1 MOL     -0.012853
    109 C39         1.4170    0.4920    4.5270 c3        1 MOL     -0.193251
    110 H46         0.1700   -3.6080    2.5900 hn        1 MOL      0.315910
    111 H47         1.2080   -1.4630    0.8030 h1        1 MOL      0.075724
    112 H48         1.8530   -2.2370    3.6040 hc        1 MOL      0.032064
    113 H49        -0.0700   -0.6550    3.4240 hc        1 MOL     -0.012014
    114 H50         0.8170    0.3910    2.3590 hc        1 MOL     -0.012014
    115 H51         3.5830   -0.6690    3.8280 hc        1 MOL     -0.013142
    116 H52         3.9670   -1.7950    2.5790 hc        1 MOL     -0.013142
    117 H53         3.5260   -0.1190    2.1290 hc        1 MOL     -0.013142
    118 H54         1.6310   -0.2540    5.2820 hc        1 MOL      0.051943
    119 H55         2.2660    1.0920    4.1900 hc        1 MOL      0.051943
    120 H56         0.5670    1.0370    4.9390 hc        1 MOL      0.051943
    121 N11         2.9860   -2.9890   -0.1150 n         1 MOL     -0.332000
    122 C40         4.1410   -3.6640   -0.7320 c3        1 MOL     -0.024131
    123 C41         5.4570   -3.2780   -0.1270 c         1 MOL      0.437935
    124 O16         5.6810   -2.3480    0.7010 o         1 MOL     -0.360953
    125 C42         4.1240   -3.3180   -2.2360 c3        1 MOL     -0.168107
    126 O17         4.5470   -1.9890   -2.4310 oh        1 MOL     -0.434013
    127 H57         2.5160   -2.2660   -0.6410 hn        1 MOL      0.234082
    128 H58         3.9350   -4.7180   -0.5540 h1        1 MOL      0.090889
    129 H59         3.1360   -3.5040   -2.6660 h1        1 MOL      0.107564
    130 H60         4.9080   -3.9010   -2.7120 h1        1 MOL      0.107564
    131 H61         3.7380   -1.5240   -2.6780 ho        1 MOL      0.381962
    132 N12         6.4950   -4.0190   -0.6010 n         1 MOL     -0.428867
    133 C43         7.8710   -3.7650   -0.1470 c3        1 MOL      0.131803
    134 C44         8.3900   -2.4140   -0.7510 c         1 MOL      0.460479
    135 O18         9.1360   -1.7320   -0.0980 o         1 MOL     -0.501578
    136 C45         8.8720   -4.8590   -0.5450 c3        1 MOL     -0.336832
    137 H62         6.3270   -4.7700   -1.2550 hn        1 MOL      0.280378
    138 H63         7.9000   -3.7100    0.9410 h1        1 MOL      0.094973
    139 H64         8.7530   -5.7830    0.0260 hc        1 MOL      0.101859
    140 H65         8.8570   -4.9550   -1.6330 hc        1 MOL      0.101859
    141 H66         9.8740   -4.5490   -0.2390 hc        1 MOL      0.101859
    142 N13         7.9520   -2.0470   -1.9950 n         1 MOL     -0.461109
    143 C46         8.1230   -0.7300   -2.6420 c3        1 MOL      0.240693
    144 C47         7.4200    0.3820   -1.7790 c         1 MOL      0.301705
    145 O19         8.0210    1.4480   -1.5690 o         1 MOL     -0.497579
    146 C48         7.6510   -0.6970   -4.0680 c3        1 MOL     -0.407617
    147 H67         7.3290   -2.7300   -2.4010 hn        1 MOL      0.302412
    148 H68         9.1870   -0.4870   -2.6810 h1        1 MOL      0.070341
    149 H69         6.6610   -1.0750   -4.2940 hc        1 MOL      0.105238
    150 H70         7.5940    0.3530   -4.3450 hc        1 MOL      0.105238
    151 H71         8.3780   -1.3020   -4.6140 hc        1 MOL      0.105238
    152 N14         6.1760    0.0330   -1.3170 n         1 MOL     -0.022635
    153 C49         5.4550    1.0200   -0.4660 c3        1 MOL     -0.062073
    154 C50         6.2000    1.3210    0.8610 c         1 MOL      0.474112
    155 O20         6.1740    2.4830    1.2640 o         1 MOL     -0.582680
    156 C51         4.0110    0.6200   -0.2420 c3        1 MOL      0.012984
    157 C52         3.1410    0.7870   -1.4520 c3        1 MOL     -0.287287
    158 C53         1.7300    0.2980   -1.2680 c         1 MOL      0.789591
    159 O21         0.8540    1.1220   -1.0490 o         1 MOL     -0.705315
    160 O22         1.4500   -0.8980   -1.5300 o         1 MOL     -0.705315
    161 H72         5.7860   -0.8390   -1.6420 hn        1 MOL      0.021360
    162 H73         5.4170    2.0250   -0.8990 h1        1 MOL      0.073667
    163 H74         3.6550    1.2510    0.5710 hc        1 MOL      0.080593
    164 H75         3.9640   -0.4460    0.0150 hc        1 MOL      0.080593
    165 H76         3.5500    0.2930   -2.3320 hc        1 MOL      0.045528
    166 H77         3.1370    1.8390   -1.7190 hc        1 MOL      0.045528
    167 N15         6.7660    0.3310    1.4870 n         1 MOL     -0.062519
    168 C54         7.6720    0.3720    2.6710 c3        1 MOL     -0.281365
    169 H78         7.0770    0.3780    3.5840 h1        1 MOL      0.113215
    170 H79         8.3180   -0.5060    2.6640 h1        1 MOL      0.113215
    171 H80         8.2830    1.2740    2.6310 h1        1 MOL      0.113215
    172 H81         6.5730   -0.5720    1.0820 hn        1 MOL      0.089883
    173 Ca1        -1.2500   -0.3240   -1.6520 Ca        1 MOL      1.774214
    174 O23        -0.4540   -0.8260   -4.1420 oh        1 MOL     -0.865539
    175 H82        -0.6200   -1.5940   -4.6820 ho        1 MOL      0.423573
    176 H83        -0.2770   -0.1230   -4.7610 ho        1 MOL      0.423573
    177 O24        -0.4850   -3.0030   -2.0440 oh        1 MOL     -0.865539
    178 H84        -0.4850   -3.8330   -1.5670 ho        1 MOL      0.423573
    179 H85        -0.1080   -3.2240   -2.8950 ho        1 MOL      0.423573
@<TRIPOS>BOND
     1    1    2 1   
     2    1    4 1   
     3    1    5 1   
     4    1    6 1   
     5    2    3 2   
     6    2    7 1   
     7    7    8 1   
     8    7   15 1   
     9    8    9 1   
    10    8   11 1   
    11    8   16 1   
    12    9   10 2   
    13    9   19 1   
    14   11   12 1   
    15   11   17 1   
    16   11   18 1   
    17   12   13 1   
    18   12   14 1   
    19   19   20 1   
    20   19   28 1   
    21   20   21 1   
    22   20   23 1   
    23   20   29 1   
    24   21   22 2   
    25   21   41 1   
    26   23   24 1   
    27   23   30 1   
    28   23   31 1   
    29   24   25 1   
    30   24   32 1   
    31   24   33 1   
    32   25   26 1   
    33   25   34 1   
    34   25   35 1   
    35   26   27 1   
    36   26   36 1   
    37   26   37 1   
    38   27   38 1   
    39   27   39 1   
    40   27   40 1   
    41   41   42 1   
    42   41   49 1   
    43   42   43 1   
    44   42   45 1   
    45   42   50 1   
    46   43   44 2   
    47   43   53 1   
    48   45   46 1   
    49   45   51 1   
    50   45   52 1   
    51   46   47 1   
    52   46   48 1   
    53   53   54 1   
    54   53   57 1   
    55   54   55 1   
    56   54   58 1   
    57   54   59 1   
    58   55   56 2   
    59   55   60 1   
    60   60   61 1   
    61   60   68 1   
    62   61   62 1   
    63   61   64 1   
    64   61   69 1   
    65   62   63 2   
    66   62   74 1   
    67   64   65 1   
    68   64   70 1   
    69   64   71 1   
    70   65   66 1   
    71   65   67 2   
    72   66   72 1   
    73   66   73 1   
    74   74   75 1   
    75   74   78 1   
    76   75   76 1   
    77   75   79 1   
    78   75   80 1   
    79   76   77 2   
    80   76   81 1   
    81   81   82 1   
    82   81   93 1   
    83   82   83 1   
    84   82   85 1   
    85   82   94 1   
    86   83   84 2   
    87   83  102 1   
    88   85   86 1   
    89   85   95 1   
    90   85   96 1   
    91   86   87 ar  
    92   86   88 ar  
    93   87   89 ar  
    94   87   97 1   
    95   88   90 ar  
    96   88   98 1   
    97   89   91 ar  
    98   89   99 1   
    99   90   91 ar  
   100   90  100 1   
   101   91   92 1   
   102   92  101 1   
   103  102  103 1   
   104  102  110 1   
   105  103  104 1   
   106  103  106 1   
   107  103  111 1   
   108  104  105 2   
   109  104  121 1   
   110  106  107 1   
   111  106  108 1   
   112  106  112 1   
   113  107  109 1   
   114  107  113 1   
   115  107  114 1   
   116  108  115 1   
   117  108  116 1   
   118  108  117 1   
   119  109  118 1   
   120  109  119 1   
   121  109  120 1   
   122  121  122 1   
   123  121  127 1   
   124  122  123 1   
   125  122  125 1   
   126  122  128 1   
   127  123  124 2   
   128  123  132 1   
   129  125  126 1   
   130  125  129 1   
   131  125  130 1   
   132  126  131 1   
   133  132  133 1   
   134  132  137 1   
   135  133  134 1   
   136  133  136 1   
   137  133  138 1   
   138  134  135 2   
   139  134  142 1   
   140  136  139 1   
   141  136  140 1   
   142  136  141 1   
   143  142  143 1   
   144  142  147 1   
   145  143  144 1   
   146  143  146 1   
   147  143  148 1   
   148  144  145 2   
   149  144  152 1   
   150  146  149 1   
   151  146  150 1   
   152  146  151 1   
   153  152  153 1   
   154  152  161 1   
   155  153  154 1   
   156  153  156 1   
   157  153  162 1   
   158  154  155 2   
   159  154  167 1   
   160  156  157 1   
   161  156  163 1   
   162  156  164 1   
   163  157  158 1   
   164  157  165 1   
   165  157  166 1   
   166  158  159 1   
   167  158  160 1   
   168  167  168 1   
   169  167  172 1   
   170  168  169 1   
   171  168  170 1   
   172  168  171 1   
   173  174  175 1   
   174  174  176 1   
   175  177  178 1   
   176  177  179 1   
@<TRIPOS>SUBSTRUCTURE
     1 MOL         1 TEMP              0 ****  ****    0 ROOT
