@<TRIPOS>MOLECULE
MOL
  172   171     1     0     0
SMALL
resp


@<TRIPOS>ATOM
      1 C1          0.4790    3.5760    5.7140 c3        1 MOL     -0.419531
      2 C2         -0.0910    3.7310    4.2610 c         1 MOL      0.699912
      3 O1          0.6060    3.9920    3.2630 o         1 MOL     -0.570129
      4 H1          0.1790    4.4360    6.3150 hc        1 MOL      0.107516
      5 H2          0.0860    2.6650    6.1640 hc        1 MOL      0.107516
      6 H3          1.5670    3.5240    5.6740 hc        1 MOL      0.107516
      7 N1         -1.3520    3.4320    4.0360 n         1 MOL     -0.575450
      8 C3         -1.9960    3.3290    2.7400 c3        1 MOL      0.187137
      9 C4         -2.1510    4.6600    2.0250 c         1 MOL      0.561915
     10 O2         -2.4390    5.7060    2.6290 o         1 MOL     -0.613462
     11 C5         -3.4130    2.6510    2.9000 c3        1 MOL     -0.438054
     12 C6         -4.0520    2.2470    1.5940 c         1 MOL      0.718259
     13 O3         -5.2520    1.8270    1.5160 o         1 MOL     -0.671545
     14 O4         -3.3650    2.0680    0.5520 o         1 MOL     -0.671545
     15 H4         -1.8170    3.0710    4.8530 hn        1 MOL      0.292651
     16 H5         -1.3600    2.6460    2.1730 h1        1 MOL      0.074915
     17 H6         -4.1060    3.3300    3.3890 hc        1 MOL      0.123570
     18 H7         -3.3140    1.7420    3.4860 hc        1 MOL      0.123570
     19 N2         -1.9320    4.6470    0.7760 n         1 MOL     -0.357970
     20 C7         -2.1290    5.7300   -0.1990 c3        1 MOL      0.164059
     21 C8         -3.0220    5.3660   -1.4030 c         1 MOL      0.539753
     22 O5         -3.1840    6.3130   -2.2200 o         1 MOL     -0.576255
     23 C9         -0.7180    6.2750   -0.5910 c3        1 MOL     -0.165601
     24 H8         -1.5700    3.7500    0.4680 hn        1 MOL      0.219252
     25 H9         -2.6450    6.5880    0.2410 h1        1 MOL      0.050869
     26 H10        -0.3240    6.7460    0.3040 hc        1 MOL      0.043059
     27 H11         0.0270    5.5520   -0.8930 hc        1 MOL      0.043059
     28 H12        -0.8150    7.0750   -1.3370 hc        1 MOL      0.043059
     29 N3         -3.6450    4.2030   -1.4690 n         1 MOL     -0.610609
     30 C10        -4.3950    3.9170   -2.6930 c3        1 MOL      0.368993
     31 C11        -5.7960    3.3160   -2.2340 c         1 MOL      0.278814
     32 O6         -6.8540    3.8000   -2.8180 o         1 MOL     -0.580945
     33 C12        -3.5510    2.9000   -3.5720 c3        1 MOL     -0.311232
     34 C13        -2.9490    1.6930   -2.6910 c         1 MOL      0.727348
     35 O7         -3.6500    0.8290   -2.1140 o         1 MOL     -0.681424
     36 O8         -1.7340    1.4240   -2.7720 o         1 MOL     -0.681424
     37 H13        -3.3050    3.4050   -0.9490 hn        1 MOL      0.384904
     38 H14        -4.5790    4.7710   -3.3450 h1        1 MOL      0.020375
     39 H15        -2.6740    3.4480   -3.9160 hc        1 MOL      0.071964
     40 H16        -4.2370    2.5250   -4.3360 hc        1 MOL      0.071964
     41 N4         -5.9000    2.4940   -1.2130 n         1 MOL     -0.013052
     42 C14        -7.1210    1.7720   -0.7980 c3        1 MOL     -0.143360
     43 C15        -7.2830    0.2480   -1.2070 c         1 MOL      0.476053
     44 O9         -8.3840   -0.2440   -1.2200 o         1 MOL     -0.587567
     45 H17        -5.0910    2.2960   -0.6270 hn        1 MOL      0.055847
     46 H18        -8.0310    2.2770   -1.1430 h1        1 MOL      0.090803
     47 H19        -7.1770    1.7650    0.2930 h1        1 MOL      0.090803
     48 N5         -6.1830   -0.4370   -1.5300 n         1 MOL     -0.002362
     49 C16        -6.3100   -1.7780   -2.1400 c3        1 MOL     -0.233657
     50 C17        -6.6090   -2.9760   -1.1370 c         1 MOL      0.556779
     51 O10        -6.9280   -4.0930   -1.6010 o         1 MOL     -0.561788
     52 C18        -5.1600   -1.9540   -3.1600 c3        1 MOL     -0.012883
     53 C19        -3.8410   -2.3170   -2.4690 c         1 MOL      0.502050
     54 N6         -2.7660   -2.5710   -3.1600 n         1 MOL     -0.631399
     55 O11        -3.7120   -2.4760   -1.2780 o         1 MOL     -0.448351
     56 H20        -5.3680    0.1540   -1.6630 hn        1 MOL      0.019764
     57 H21        -7.2220   -1.6430   -2.7230 h1        1 MOL      0.120170
     58 H22        -4.9970   -0.9870   -3.6440 hc        1 MOL      0.045318
     59 H23        -5.3310   -2.6890   -3.9400 hc        1 MOL      0.045318
     60 H24        -2.7520   -2.2870   -4.1240 hn        1 MOL      0.322544
     61 H25        -1.8860   -2.5210   -2.6670 hn        1 MOL      0.322544
     62 N7         -6.5990   -2.6410    0.1280 n         1 MOL     -0.309372
     63 C20        -6.6990   -3.5460    1.2810 c3        1 MOL     -0.206335
     64 C21        -5.3370   -4.1480    1.7870 c         1 MOL      0.436564
     65 O12        -5.3650   -5.0020    2.6470 o         1 MOL     -0.528936
     66 H26        -6.1310   -1.7710    0.3490 hn        1 MOL      0.236216
     67 H27        -7.3370   -4.3850    0.9820 h1        1 MOL      0.124828
     68 H28        -7.1860   -2.9580    2.0560 h1        1 MOL      0.124828
     69 N8         -4.1830   -3.7290    1.1530 n         1 MOL     -0.053012
     70 C22        -2.9460   -4.4900    1.3130 c3        1 MOL     -0.509290
     71 C23        -1.8020   -3.5300    1.3720 c         1 MOL      0.816375
     72 O13        -1.9670   -2.3810    0.9550 o         1 MOL     -0.718920
     73 C24        -2.7240   -5.5120    0.1650 c3        1 MOL      0.582536
     74 C25        -3.8060   -6.5460    0.0660 c3        1 MOL     -0.234990
     75 O14        -2.4880   -4.9950   -1.1150 oh        1 MOL     -0.638623
     76 H29        -4.1900   -3.0610    0.3870 hn        1 MOL      0.158685
     77 H30        -2.8890   -5.0450    2.2520 h1        1 MOL      0.147667
     78 H31        -1.8510   -6.1240    0.3670 h1        1 MOL     -0.036618
     79 H32        -2.8640   -4.1070   -1.1860 ho        1 MOL      0.361718
     80 H33        -4.0350   -7.0210    1.0240 hc        1 MOL      0.047980
     81 H34        -4.6330   -6.1270   -0.5090 hc        1 MOL      0.047980
     82 H35        -3.4720   -7.4140   -0.4970 hc        1 MOL      0.047980
     83 N9         -0.6140   -3.9000    1.9550 n         1 MOL     -0.650604
     84 C26         0.5260   -2.9730    1.8790 c3        1 MOL      0.301882
     85 C27         1.2490   -3.2640    0.5960 c         1 MOL      0.362176
     86 O15         1.5080   -4.3680    0.1330 o         1 MOL     -0.550590
     87 C28         1.4050   -3.2180    3.1880 c3        1 MOL     -0.063507
     88 C29         0.6990   -2.5830    4.3830 c3        1 MOL      0.024074
     89 C30         2.8340   -2.9070    2.9710 c3        1 MOL      0.058840
     90 C31         1.4440   -2.5350    5.7430 c3        1 MOL     -0.174322
     91 H36        -0.5520   -4.8540    2.2950 hn        1 MOL      0.303273
     92 H37         0.1670   -1.9400    1.8620 h1        1 MOL      0.036580
     93 H38         1.4120   -4.2960    3.3270 hc        1 MOL      0.010432
     94 H39        -0.3360   -2.9260    4.4650 hc        1 MOL      0.018410
     95 H40         0.5660   -1.5170    4.1640 hc        1 MOL      0.018410
     96 H41         2.9530   -1.8630    2.6780 hc        1 MOL     -0.008455
     97 H42         3.4840   -3.0240    3.8410 hc        1 MOL     -0.008455
     98 H43         3.2400   -3.6050    2.2400 hc        1 MOL     -0.008455
     99 H44         0.8320   -2.0280    6.4900 hc        1 MOL      0.036917
    100 H45         1.4260   -3.5720    6.0910 hc        1 MOL      0.036917
    101 H46         2.4220   -2.0610    5.7060 hc        1 MOL      0.036917
    102 N10         1.7970   -2.1900    0.0210 n         1 MOL     -0.005233
    103 C32         2.6380   -2.1340   -1.2240 c3        1 MOL     -0.051463
    104 C33         4.1320   -1.6980   -0.9600 c         1 MOL      0.387131
    105 O16         4.3730   -1.1830    0.1510 o         1 MOL     -0.337112
    106 C34         2.0520   -1.1280   -2.2520 c3        1 MOL     -0.230962
    107 C35         0.6690   -1.4360   -2.6570 c         1 MOL      0.784636
    108 O17        -0.2330   -1.0620   -1.8840 o         1 MOL     -0.704742
    109 O18         0.4400   -1.9520   -3.7720 o         1 MOL     -0.704742
    110 H47         1.4630   -1.3090    0.3970 hn        1 MOL     -0.082524
    111 H48         2.6380   -3.1030   -1.7380 h1        1 MOL      0.082681
    112 H49         2.6950   -0.9050   -3.0990 hc        1 MOL      0.090165
    113 H50         2.0380   -0.1370   -1.7890 hc        1 MOL      0.090165
    114 N11         5.0860   -1.7960   -1.8920 n         1 MOL     -0.507661
    115 C36         6.5070   -1.5280   -1.6100 c3        1 MOL      0.275277
    116 C37         6.7780   -0.2000   -0.9100 c         1 MOL      0.387005
    117 O19         7.3800   -0.2210    0.1790 o         1 MOL     -0.495514
    118 C38         7.4410   -1.7090   -2.8490 c3        1 MOL     -0.246384
    119 C39         8.8780   -1.3380   -2.5470 ca        1 MOL      0.058517
    120 C40         9.5460   -1.9780   -1.4920 ca        1 MOL     -0.094869
    121 C41         9.6750   -0.5100   -3.3460 ca        1 MOL     -0.094869
    122 C42        10.9410   -1.7680   -1.2610 ca        1 MOL     -0.196644
    123 C43        11.0640   -0.1650   -3.0420 ca        1 MOL     -0.196644
    124 C44        11.6550   -0.8170   -1.9680 ca        1 MOL     -0.011551
    125 H51         4.8570   -2.2640   -2.7600 hn        1 MOL      0.313710
    126 H52         6.8410   -2.3390   -0.9550 h1        1 MOL      0.061527
    127 H53         7.0810   -1.0930   -3.6780 hc        1 MOL      0.076798
    128 H54         7.3510   -2.7330   -3.2230 hc        1 MOL      0.076798
    129 H55         9.0190   -2.7180   -0.9050 ha        1 MOL      0.096840
    130 H56         9.2140    0.0500   -4.1510 ha        1 MOL      0.096840
    131 H57        11.4150   -2.3110   -0.4480 ha        1 MOL      0.130197
    132 H58        11.5090    0.6140   -3.6490 ha        1 MOL      0.130197
    133 H59        12.6950   -0.6890   -1.6930 ha        1 MOL      0.078615
    134 N12         6.2700    0.9480   -1.4490 n         1 MOL     -0.068310
    135 C45         6.4430    2.2060   -0.8220 c3        1 MOL     -0.196464
    136 C46         5.4700    2.5660    0.3480 c         1 MOL      0.486085
    137 O20         5.4340    3.6820    0.8460 o         1 MOL     -0.552900
    138 C47         6.2410    3.2910   -1.9200 c3        1 MOL      0.109693
    139 C48         5.4520    2.5840   -2.9840 c3        1 MOL     -0.072801
    140 C49         5.5230    1.0730   -2.6590 c3        1 MOL      0.051546
    141 H60         7.4530    2.3950   -0.4460 h1        1 MOL      0.114420
    142 H61         5.7520    4.1970   -1.5710 hc        1 MOL     -0.000829
    143 H62         7.2090    3.6600   -2.2750 hc        1 MOL     -0.000829
    144 H63         4.3840    2.7820   -3.0540 hc        1 MOL      0.027740
    145 H64         5.9570    2.7600   -3.9330 hc        1 MOL      0.027740
    146 H65         4.5160    0.6780   -2.5210 h1        1 MOL      0.013146
    147 H66         5.8600    0.4640   -3.4940 h1        1 MOL      0.013146
    148 N13         4.8280    1.5420    0.8750 n         1 MOL     -0.024552
    149 C50         4.0290    1.5000    2.0880 c3        1 MOL     -0.077697
    150 C51         4.8050    0.7350    3.2170 c         1 MOL      0.396282
    151 O21         4.8940    1.1040    4.3920 o         1 MOL     -0.569646
    152 C52         2.6170    1.0120    1.7720 c3        1 MOL      0.006305
    153 C53         1.8070    1.9590    0.8960 c3        1 MOL      0.055623
    154 C54         0.4710    1.3630    0.6140 c         1 MOL      0.627960
    155 O22         0.0940    0.2760    1.1050 o         1 MOL     -0.717258
    156 O23        -0.2790    2.0100   -0.1220 o         1 MOL     -0.717258
    157 H67         5.0760    0.6380    0.5170 hn        1 MOL     -0.126995
    158 H68         3.9860    2.4880    2.5540 h1        1 MOL      0.088368
    159 H69         2.0600    1.0580    2.7060 hc        1 MOL      0.040322
    160 H70         2.7320    0.0310    1.2930 hc        1 MOL      0.040322
    161 H71         2.2640    2.1200   -0.0720 hc        1 MOL      0.032928
    162 H72         1.8240    2.9440    1.3770 hc        1 MOL      0.032928
    163 N14         5.4370   -0.3290    2.8850 n         1 MOL      0.011583
    164 C55         6.4120   -1.1800    3.6070 c3        1 MOL     -0.123933
    165 H73         6.4010   -0.9260    4.6660 h1        1 MOL      0.058827
    166 H74         6.1400   -2.2290    3.4840 h1        1 MOL      0.058827
    167 H75         7.4100   -1.0130    3.2030 h1        1 MOL      0.058827
    168 H76         5.1500   -0.7130    1.9920 hn        1 MOL      0.080994
    169 Ca1        -2.0820   -0.1320   -0.3650 Ca        1 MOL      1.670574
    170 O24        -4.4140   -0.7360    0.9330 oh        1 MOL     -0.690729
    171 H77        -4.8360    0.1090    1.1080 ho        1 MOL      0.340889
    172 H78        -4.2350   -1.1040    1.8030 ho        1 MOL      0.340889
@<TRIPOS>BOND
     1    1    2 1   
     2    1    4 1   
     3    1    5 1   
     4    1    6 1   
     5    2    3 2   
     6    2    7 1   
     7    7    8 1   
     8    7   15 1   
     9    8    9 1   
    10    8   11 1   
    11    8   16 1   
    12    9   10 2   
    13    9   19 1   
    14   11   12 1   
    15   11   17 1   
    16   11   18 1   
    17   12   13 1   
    18   12   14 1   
    19   19   20 1   
    20   19   24 1   
    21   20   21 1   
    22   20   23 1   
    23   20   25 1   
    24   21   22 2   
    25   21   29 1   
    26   23   26 1   
    27   23   27 1   
    28   23   28 1   
    29   29   30 1   
    30   29   37 1   
    31   30   31 1   
    32   30   33 1   
    33   30   38 1   
    34   31   32 2   
    35   31   41 1   
    36   33   34 1   
    37   33   39 1   
    38   33   40 1   
    39   34   35 1   
    40   34   36 1   
    41   41   42 1   
    42   41   45 1   
    43   42   43 1   
    44   42   46 1   
    45   42   47 1   
    46   43   44 2   
    47   43   48 1   
    48   48   49 1   
    49   48   56 1   
    50   49   50 1   
    51   49   52 1   
    52   49   57 1   
    53   50   51 2   
    54   50   62 1   
    55   52   53 1   
    56   52   58 1   
    57   52   59 1   
    58   53   54 1   
    59   53   55 2   
    60   54   60 1   
    61   54   61 1   
    62   62   63 1   
    63   62   66 1   
    64   63   64 1   
    65   63   67 1   
    66   63   68 1   
    67   64   65 2   
    68   64   69 1   
    69   69   70 1   
    70   69   76 1   
    71   70   71 1   
    72   70   73 1   
    73   70   77 1   
    74   71   72 2   
    75   71   83 1   
    76   73   74 1   
    77   73   75 1   
    78   73   78 1   
    79   74   80 1   
    80   74   81 1   
    81   74   82 1   
    82   75   79 1   
    83   83   84 1   
    84   83   91 1   
    85   84   85 1   
    86   84   87 1   
    87   84   92 1   
    88   85   86 2   
    89   85  102 1   
    90   87   88 1   
    91   87   89 1   
    92   87   93 1   
    93   88   90 1   
    94   88   94 1   
    95   88   95 1   
    96   89   96 1   
    97   89   97 1   
    98   89   98 1   
    99   90   99 1   
   100   90  100 1   
   101   90  101 1   
   102  102  103 1   
   103  102  110 1   
   104  103  104 1   
   105  103  106 1   
   106  103  111 1   
   107  104  105 2   
   108  104  114 1   
   109  106  107 1   
   110  106  112 1   
   111  106  113 1   
   112  107  108 1   
   113  107  109 1   
   114  114  115 1   
   115  114  125 1   
   116  115  116 1   
   117  115  118 1   
   118  115  126 1   
   119  116  117 2   
   120  116  134 1   
   121  118  119 1   
   122  118  127 1   
   123  118  128 1   
   124  119  120 ar  
   125  119  121 ar  
   126  120  122 ar  
   127  120  129 1   
   128  121  123 ar  
   129  121  130 1   
   130  122  124 ar  
   131  122  131 1   
   132  123  124 ar  
   133  123  132 1   
   134  124  133 1   
   135  134  135 1   
   136  134  140 1   
   137  135  136 1   
   138  135  138 1   
   139  135  141 1   
   140  136  137 2   
   141  136  148 1   
   142  138  139 1   
   143  138  142 1   
   144  138  143 1   
   145  139  140 1   
   146  139  144 1   
   147  139  145 1   
   148  140  146 1   
   149  140  147 1   
   150  148  149 1   
   151  148  157 1   
   152  149  150 1   
   153  149  152 1   
   154  149  158 1   
   155  150  151 2   
   156  150  163 1   
   157  152  153 1   
   158  152  159 1   
   159  152  160 1   
   160  153  154 1   
   161  153  161 1   
   162  153  162 1   
   163  154  155 1   
   164  154  156 1   
   165  163  164 1   
   166  163  168 1   
   167  164  165 1   
   168  164  166 1   
   169  164  167 1   
   170  170  171 1   
   171  170  172 1   
@<TRIPOS>SUBSTRUCTURE
     1 MOL         1 TEMP              0 ****  ****    0 ROOT
