@<TRIPOS>MOLECULE
MOL
  186   183     1     0     0
SMALL
resp


@<TRIPOS>ATOM
      1 C1          0.3360   -1.9430    6.3680 c3        1 MOL     -0.316447
      2 C2          0.7560   -2.2120    4.9530 c         1 MOL      0.787862
      3 O1         -0.1130   -2.6420    4.2200 o         1 MOL     -0.542510
      4 H1         -0.7180   -1.6680    6.3860 hc        1 MOL      0.066297
      5 H2          0.4880   -2.8390    6.9690 hc        1 MOL      0.066297
      6 H3          0.9320   -1.1270    6.7750 hc        1 MOL      0.066297
      7 N1          2.0500   -2.0490    4.6060 n         1 MOL     -0.736760
      8 C3          2.5840   -2.0780    3.2790 c3        1 MOL      0.418155
      9 C4          2.9950   -3.4520    2.7350 c         1 MOL      0.616214
     10 O2          3.3520   -4.3110    3.5350 o         1 MOL     -0.639080
     11 C5          3.7740   -1.0210    3.1220 c3        1 MOL     -0.449926
     12 C6          4.4310   -0.9140    1.7340 c         1 MOL      0.725048
     13 O3          5.5560   -0.4030    1.5500 o         1 MOL     -0.606028
     14 O4          3.7330   -1.2630    0.7510 o         1 MOL     -0.606028
     15 H4          2.6660   -1.6620    5.3160 hn        1 MOL      0.324182
     16 H5          1.7500   -1.7190    2.6660 h1        1 MOL      0.015516
     17 H6          4.5120   -1.3540    3.8530 hc        1 MOL      0.091485
     18 H7          3.3720   -0.0340    3.3710 hc        1 MOL      0.091485
     19 N2          2.8570   -3.6970    1.4710 n         1 MOL     -0.206026
     20 C7          2.8000   -4.9800    0.8040 c3        1 MOL      0.073724
     21 C8          3.8050   -5.1730   -0.3050 c         1 MOL      0.401852
     22 O5          4.3140   -6.2670   -0.4450 o         1 MOL     -0.577339
     23 C9          1.3550   -5.3560    0.2940 c3        1 MOL      0.316630
     24 C10         0.2920   -5.1280    1.3400 c3        1 MOL      0.126024
     25 C11         1.3330   -6.7870   -0.2390 c3        1 MOL     -0.400548
     26 C12         0.2490   -6.1960    2.5000 c3        1 MOL     -0.347234
     27 H8          2.5150   -2.9330    0.9080 hn        1 MOL     -0.266080
     28 H9          3.0310   -5.7450    1.5500 h1        1 MOL      0.035829
     29 H10         1.1860   -4.7560   -0.6060 hc        1 MOL     -0.009370
     30 H11        -0.6430   -5.2010    0.7810 hc        1 MOL     -0.004532
     31 H12         0.4330   -4.1200    1.7230 hc        1 MOL     -0.004532
     32 H13         1.8010   -6.8840   -1.2140 hc        1 MOL      0.076722
     33 H14         1.8470   -7.4380    0.4800 hc        1 MOL      0.076722
     34 H15         0.3110   -7.1690   -0.2240 hc        1 MOL      0.076722
     35 H16         1.1390   -6.2010    3.1320 hc        1 MOL      0.074605
     36 H17        -0.6110   -5.8650    3.0850 hc        1 MOL      0.074605
     37 H18         0.0030   -7.1650    2.0720 hc        1 MOL      0.074605
     38 N3          4.0960   -4.1530   -1.0790 n         1 MOL     -0.149779
     39 C13         4.8400   -4.1190   -2.3370 c3        1 MOL     -0.014336
     40 C14         6.1290   -3.1960   -2.1770 c         1 MOL      0.367749
     41 O6          6.8870   -3.1520   -3.0820 o         1 MOL     -0.468308
     42 C15         3.9460   -3.7560   -3.5490 c3        1 MOL     -0.085148
     43 C16         3.0910   -2.4660   -3.4800 c         1 MOL      0.760176
     44 O7          2.2450   -2.3410   -4.3720 o         1 MOL     -0.700861
     45 O8          3.2860   -1.6490   -2.5350 o         1 MOL     -0.700861
     46 H19         3.6530   -3.2660   -0.8980 hn        1 MOL      0.180971
     47 H20         5.2110   -5.1190   -2.5290 h1        1 MOL      0.078423
     48 H21         3.2580   -4.5970   -3.6290 hc        1 MOL      0.023502
     49 H22         4.5880   -3.7560   -4.4400 hc        1 MOL      0.023502
     50 N4          6.3370   -2.4830   -1.0460 n         1 MOL     -0.334090
     51 C17         7.7250   -2.2490   -0.7420 c3        1 MOL      0.282828
     52 C18         8.2710   -0.8360   -0.9650 c         1 MOL      0.401801
     53 O9          9.3920   -0.6170   -1.4770 o         1 MOL     -0.590390
     54 H23         5.5890   -2.3880   -0.3760 hn        1 MOL      0.207144
     55 H24         8.4090   -2.8030   -1.3940 h1        1 MOL     -0.026919
     56 H25         8.0140   -2.5570    0.2620 h1        1 MOL     -0.026919
     57 N5          7.4300    0.1700   -0.7390 n         1 MOL     -0.167459
     58 C19         7.5820    1.6110   -1.2070 c3        1 MOL     -0.044204
     59 C20         7.1710    2.6230   -0.1840 c         1 MOL      0.448527
     60 O10         7.2530    3.8320   -0.4630 o         1 MOL     -0.555873
     61 C21         6.7990    1.7800   -2.5200 c3        1 MOL     -0.054044
     62 C22         5.2340    1.5910   -2.4380 c         1 MOL      0.655854
     63 O11         4.5420    2.0160   -3.4270 o         1 MOL     -0.701489
     64 O12         4.6710    1.2520   -1.3390 o         1 MOL     -0.701489
     65 H26         6.5730   -0.0490   -0.2440 hn        1 MOL      0.008878
     66 H27         8.6430    1.7750   -1.4100 h1        1 MOL      0.088397
     67 H28         7.2020    1.1190   -3.2880 hc        1 MOL      0.040620
     68 H29         6.9510    2.7690   -2.9320 hc        1 MOL      0.040620
     69 N6          6.6140    2.1940    0.9500 n         1 MOL     -0.267144
     70 C23         6.3420    3.0280    2.1830 c3        1 MOL     -0.103444
     71 C24         5.0700    3.8140    2.0930 c         1 MOL      0.540892
     72 O13         4.7520    4.5860    2.9810 o         1 MOL     -0.592886
     73 H30         6.4660    1.1980    1.0360 hn        1 MOL      0.204026
     74 H31         7.2060    3.6740    2.3540 h1        1 MOL      0.092052
     75 H32         6.2420    2.2870    2.9780 h1        1 MOL      0.092052
     76 N7          4.2910    3.7920    0.9640 n         1 MOL     -0.438465
     77 C25         2.9260    4.3880    0.9220 c3        1 MOL      0.520837
     78 C26         1.8000    3.3420    0.8830 c         1 MOL      0.232001
     79 O14         1.8430    2.2200    0.3200 o         1 MOL     -0.595548
     80 C27         2.7520    5.3920   -0.1540 c3        1 MOL     -0.172734
     81 C28         3.7870    6.5280    0.0090 c3        1 MOL      0.025597
     82 C29         3.7630    7.7200   -0.9630 c         1 MOL      0.563064
     83 N8          3.8750    7.3390   -2.2540 n         1 MOL     -0.808152
     84 O15         3.5090    8.9130   -0.6510 o         1 MOL     -0.562878
     85 H33         4.6710    3.1340    0.3020 hn        1 MOL      0.297706
     86 H34         2.7070    4.8320    1.8930 h1        1 MOL     -0.021710
     87 H35         1.7630    5.8380   -0.1020 hc        1 MOL      0.042304
     88 H36         3.0340    4.9060   -1.0820 hc        1 MOL      0.042304
     89 H37         4.7770    6.0620   -0.0120 hc        1 MOL     -0.006003
     90 H38         3.6170    6.9830    0.9800 hc        1 MOL     -0.006003
     91 H39         3.9460    6.3480   -2.4630 hn        1 MOL      0.376020
     92 H40         3.8280    8.0500   -2.9590 hn        1 MOL      0.376020
     93 N9          0.7140    3.6130    1.6660 n         1 MOL     -0.293522
     94 C30        -0.3790    2.7500    1.9970 c3        1 MOL      0.151640
     95 C31        -1.6210    3.1730    1.1900 c         1 MOL      0.280858
     96 O16        -2.2610    4.1810    1.4100 o         1 MOL     -0.550603
     97 C32        -0.6950    2.6970    3.4930 c3        1 MOL      0.430542
     98 C33        -1.8270    1.7060    3.7570 c3        1 MOL     -0.275300
     99 C34         0.5570    2.4840    4.3980 c3        1 MOL     -0.275300
    100 H41         0.6520    4.5360    2.0910 hn        1 MOL      0.210140
    101 H42        -0.1000    1.7260    1.7720 h1        1 MOL      0.073541
    102 H43        -1.0780    3.6860    3.7690 hc        1 MOL     -0.094743
    103 H44        -1.5580    0.7050    3.4110 hc        1 MOL      0.039368
    104 H45        -2.0250    1.7150    4.8310 hc        1 MOL      0.039368
    105 H46        -2.8080    1.9550    3.3510 hc        1 MOL      0.039368
    106 H47         1.2250    3.3270    4.2160 hc        1 MOL      0.039368
    107 H48         0.2640    2.6340    5.4400 hc        1 MOL      0.039368
    108 H49         0.9870    1.5150    4.1520 hc        1 MOL      0.039368
    109 N10        -1.9060    2.2440    0.2990 n         1 MOL      0.022712
    110 C35        -2.9660    2.4360   -0.6300 c3        1 MOL      0.003065
    111 C36        -4.2710    1.9610    0.0740 c         1 MOL      0.280700
    112 O17        -4.1610    1.1710    0.9650 o         1 MOL     -0.220750
    113 C37        -2.8510    1.6000   -1.9350 c3        1 MOL     -0.566082
    114 C38        -3.8590    1.8970   -2.9700 c         1 MOL      0.755303
    115 N11        -4.1580    3.1600   -3.2550 n         1 MOL     -0.824803
    116 O18        -4.5300    1.0230   -3.5100 o         1 MOL     -0.503882
    117 H50        -1.4160    1.3630    0.3330 hn        1 MOL      0.040269
    118 H51        -3.0070    3.4950   -0.8570 h1        1 MOL      0.064078
    119 H52        -2.8300    0.5410   -1.6630 hc        1 MOL      0.223185
    120 H53        -1.8570    1.8790   -2.2950 hc        1 MOL      0.223185
    121 H54        -3.6840    3.8890   -2.7430 hn        1 MOL      0.367919
    122 H55        -4.7710    3.3810   -4.0220 hn        1 MOL      0.367919
    123 N12        -5.4290    2.5470   -0.2590 n         1 MOL     -0.409006
    124 C39        -6.7250    1.9300   -0.0680 c3        1 MOL      0.221009
    125 C40        -6.8100    0.3860   -0.1350 c         1 MOL      0.795056
    126 O19        -7.3030   -0.2310    0.8050 o         1 MOL     -0.571324
    127 C41        -7.7760    2.6910   -0.8380 c3        1 MOL     -0.172846
    128 C42        -9.1270    2.2030   -0.5030 ca        1 MOL      0.042790
    129 C43        -9.6210    2.3260    0.8020 ca        1 MOL     -0.195063
    130 C44        -9.7920    1.3970   -1.4540 ca        1 MOL     -0.195063
    131 C45       -10.8060    1.6410    1.1800 ca        1 MOL     -0.286684
    132 C46       -10.9170    0.6340   -1.0210 ca        1 MOL     -0.286684
    133 C47       -11.4540    0.7390    0.2820 ca        1 MOL      0.378027
    134 O20       -12.5490    0.0100    0.6150 oh        1 MOL     -0.504544
    135 H56        -5.4770    3.2720   -0.9650 hn        1 MOL      0.214624
    136 H57        -6.7980    2.0990    1.0040 h1        1 MOL     -0.013868
    137 H58        -7.6880    2.5230   -1.9030 hc        1 MOL      0.059944
    138 H59        -7.7460    3.7420   -0.5690 hc        1 MOL      0.059944
    139 H60        -9.1130    2.9740    1.5060 ha        1 MOL      0.155670
    140 H61        -9.4210    1.3330   -2.4650 ha        1 MOL      0.155670
    141 H62       -11.2210    1.6580    2.1710 ha        1 MOL      0.154832
    142 H63       -11.3700   -0.0580   -1.7130 ha        1 MOL      0.154832
    143 H64       -12.8160   -0.4860   -0.1620 ho        1 MOL      0.362173
    144 N13        -6.3190   -0.1250   -1.2230 n         1 MOL     -0.538605
    145 C48        -6.3270   -1.6120   -1.2770 c3        1 MOL      0.041554
    146 C49        -5.4840   -2.1810   -0.1140 c         1 MOL      0.255917
    147 O21        -5.7010   -3.3380    0.3090 o         1 MOL     -0.500766
    148 C50        -5.6780   -2.0340   -2.5710 c3        1 MOL      0.080591
    149 C51        -6.4990   -1.8610   -3.8880 c3        1 MOL     -0.219268
    150 C52        -5.7700   -2.4940   -5.1030 c         1 MOL      0.740478
    151 O22        -5.6170   -1.8240   -6.1480 o         1 MOL     -0.744465
    152 O23        -5.5330   -3.7380   -5.1040 o         1 MOL     -0.744465
    153 H65        -5.8280    0.3950   -1.9440 hn        1 MOL      0.270228
    154 H66        -7.3390   -2.0090   -1.2930 h1        1 MOL      0.076345
    155 H67        -5.4470   -3.0900   -2.4490 hc        1 MOL      0.011559
    156 H68        -4.7600   -1.4660   -2.6800 hc        1 MOL      0.011559
    157 H69        -6.7340   -0.8020   -4.0700 hc        1 MOL      0.011047
    158 H70        -7.4430   -2.4000   -3.8680 hc        1 MOL      0.011047
    159 N14        -4.4610   -1.5210    0.3740 n         1 MOL     -0.007392
    160 C53        -3.7420   -1.9670    1.5010 c3        1 MOL     -0.165772
    161 C54        -4.4690   -1.7330    2.8410 c         1 MOL      0.466195
    162 O24        -4.4130   -2.6370    3.6680 o         1 MOL     -0.559794
    163 C55        -2.2850   -1.4010    1.4570 c3        1 MOL     -0.015106
    164 C56        -1.5560   -1.8580    0.1910 c3        1 MOL      0.195196
    165 C57        -0.1330   -1.1970   -0.0360 c         1 MOL      0.552432
    166 O25         0.9340   -1.8540   -0.0280 o         1 MOL     -0.607759
    167 O26        -0.1080    0.0310   -0.2650 o         1 MOL     -0.607759
    168 H71        -4.3020   -0.5700    0.0550 hn        1 MOL      0.044815
    169 H72        -3.6600   -3.0480    1.4680 h1        1 MOL      0.128879
    170 H73        -1.7290   -1.7360    2.3330 hc        1 MOL      0.012676
    171 H74        -2.2510   -0.3160    1.5300 hc        1 MOL      0.012676
    172 H75        -2.0670   -1.5710   -0.7310 hc        1 MOL     -0.074982
    173 H76        -1.2960   -2.9230    0.1960 hc        1 MOL     -0.074982
    174 N15        -5.1520   -0.6170    3.0220 n         1 MOL     -0.070000
    175 C58        -5.8840   -0.3170    4.2880 c3        1 MOL     -0.142678
    176 H77        -6.8960    0.0100    4.0530 h1        1 MOL      0.060560
    177 H78        -5.9260   -1.2140    4.9060 h1        1 MOL      0.060560
    178 H79        -5.3630    0.4740    4.8300 h1        1 MOL      0.060560
    179 H80        -5.1470    0.0680    2.2790 hn        1 MOL      0.062585
    180 Ca1         2.4330    0.0890   -0.9650 Ca        1 MOL      1.704158
    181 O27         1.8720    1.8500   -3.0020 oh        1 MOL     -0.878616
    182 H81         2.6510    2.3050   -3.3240 ho        1 MOL      0.408118
    183 H82         1.3540    1.6800   -3.7940 ho        1 MOL      0.408118
    184 O28         0.5110   -0.5910   -3.3040 oh        1 MOL     -0.878616
    185 H83         1.2650   -1.0480   -3.6580 ho        1 MOL      0.408118
    186 H84        -0.2370   -0.9160   -3.8100 ho        1 MOL      0.408118
@<TRIPOS>BOND
     1    1    2 1   
     2    1    4 1   
     3    1    5 1   
     4    1    6 1   
     5    2    3 2   
     6    2    7 1   
     7    7    8 1   
     8    7   15 1   
     9    8    9 1   
    10    8   11 1   
    11    8   16 1   
    12    9   10 2   
    13    9   19 1   
    14   11   12 1   
    15   11   17 1   
    16   11   18 1   
    17   12   13 1   
    18   12   14 1   
    19   19   20 1   
    20   19   27 1   
    21   20   21 1   
    22   20   23 1   
    23   20   28 1   
    24   21   22 2   
    25   21   38 1   
    26   23   24 1   
    27   23   25 1   
    28   23   29 1   
    29   24   26 1   
    30   24   30 1   
    31   24   31 1   
    32   25   32 1   
    33   25   33 1   
    34   25   34 1   
    35   26   35 1   
    36   26   36 1   
    37   26   37 1   
    38   38   39 1   
    39   38   46 1   
    40   39   40 1   
    41   39   42 1   
    42   39   47 1   
    43   40   41 2   
    44   40   50 1   
    45   42   43 1   
    46   42   48 1   
    47   42   49 1   
    48   43   44 1   
    49   43   45 1   
    50   50   51 1   
    51   50   54 1   
    52   51   52 1   
    53   51   55 1   
    54   51   56 1   
    55   52   53 2   
    56   52   57 1   
    57   57   58 1   
    58   57   65 1   
    59   58   59 1   
    60   58   61 1   
    61   58   66 1   
    62   59   60 2   
    63   59   69 1   
    64   61   62 1   
    65   61   67 1   
    66   61   68 1   
    67   62   63 1   
    68   62   64 1   
    69   69   70 1   
    70   69   73 1   
    71   70   71 1   
    72   70   74 1   
    73   70   75 1   
    74   71   72 2   
    75   71   76 1   
    76   76   77 1   
    77   76   85 1   
    78   77   78 1   
    79   77   80 1   
    80   77   86 1   
    81   78   79 2   
    82   78   93 1   
    83   80   81 1   
    84   80   87 1   
    85   80   88 1   
    86   81   82 1   
    87   81   89 1   
    88   81   90 1   
    89   82   83 1   
    90   82   84 2   
    91   83   91 1   
    92   83   92 1   
    93   93   94 1   
    94   93  100 1   
    95   94   95 1   
    96   94   97 1   
    97   94  101 1   
    98   95   96 2   
    99   95  109 1   
   100   97   98 1   
   101   97   99 1   
   102   97  102 1   
   103   98  103 1   
   104   98  104 1   
   105   98  105 1   
   106   99  106 1   
   107   99  107 1   
   108   99  108 1   
   109  109  110 1   
   110  109  117 1   
   111  110  111 1   
   112  110  113 1   
   113  110  118 1   
   114  111  112 2   
   115  111  123 1   
   116  113  114 1   
   117  113  119 1   
   118  113  120 1   
   119  114  115 1   
   120  114  116 2   
   121  115  121 1   
   122  115  122 1   
   123  123  124 1   
   124  123  135 1   
   125  124  125 1   
   126  124  127 1   
   127  124  136 1   
   128  125  126 2   
   129  125  144 1   
   130  127  128 1   
   131  127  137 1   
   132  127  138 1   
   133  128  129 ar  
   134  128  130 ar  
   135  129  131 ar  
   136  129  139 1   
   137  130  132 ar  
   138  130  140 1   
   139  131  133 ar  
   140  131  141 1   
   141  132  133 ar  
   142  132  142 1   
   143  133  134 1   
   144  134  143 1   
   145  144  145 1   
   146  144  153 1   
   147  145  146 1   
   148  145  148 1   
   149  145  154 1   
   150  146  147 2   
   151  146  159 1   
   152  148  149 1   
   153  148  155 1   
   154  148  156 1   
   155  149  150 1   
   156  149  157 1   
   157  149  158 1   
   158  150  151 1   
   159  150  152 1   
   160  159  160 1   
   161  159  168 1   
   162  160  161 1   
   163  160  163 1   
   164  160  169 1   
   165  161  162 2   
   166  161  174 1   
   167  163  164 1   
   168  163  170 1   
   169  163  171 1   
   170  164  165 1   
   171  164  172 1   
   172  164  173 1   
   173  165  166 1   
   174  165  167 1   
   175  174  175 1   
   176  174  179 1   
   177  175  176 1   
   178  175  177 1   
   179  175  178 1   
   180  181  182 1   
   181  181  183 1   
   182  184  185 1   
   183  184  186 1   
@<TRIPOS>SUBSTRUCTURE
     1 MOL         1 TEMP              0 ****  ****    0 ROOT
