@<TRIPOS>MOLECULE
MOL
  179   176     1     0     0
SMALL
resp


@<TRIPOS>ATOM
      1 C1          0.2950    4.9120   -4.5750 c3        1 MOL     -0.209749
      2 C2          0.6040    4.0700   -3.3420 c         1 MOL      0.590845
      3 O1         -0.1810    4.0880   -2.4310 o         1 MOL     -0.514002
      4 H1         -0.5680    4.4940   -5.0930 hc        1 MOL      0.050004
      5 H2          0.0760    5.9360   -4.2710 hc        1 MOL      0.050004
      6 H3          1.1560    4.9080   -5.2450 hc        1 MOL      0.050004
      7 N1          1.7060    3.2770   -3.3080 n         1 MOL     -0.547772
      8 C3          2.1760    2.5580   -2.1010 c3        1 MOL      0.039537
      9 C4          3.1800    3.4670   -1.3850 c         1 MOL      0.463505
     10 O2          4.3500    3.4110   -1.5480 o         1 MOL     -0.451626
     11 C5          2.6560    1.1760   -2.4530 c3        1 MOL     -0.027175
     12 C6          3.3230    0.4090   -1.2890 c         1 MOL      0.558414
     13 O3          2.7960    0.5140   -0.1340 o         1 MOL     -0.625173
     14 O4          4.3210   -0.2390   -1.6190 o         1 MOL     -0.625173
     15 H4          2.3220    3.2130   -4.1090 hn        1 MOL      0.335172
     16 H5          1.3550    2.4480   -1.3870 h1        1 MOL      0.064023
     17 H6          3.3600    1.1720   -3.2880 hc        1 MOL      0.009016
     18 H7          1.7600    0.6260   -2.7620 hc        1 MOL      0.009016
     19 N2          2.5820    4.4390   -0.6730 n         1 MOL     -0.339905
     20 C7          3.3190    5.5100   -0.0380 c3        1 MOL     -0.077092
     21 C8          4.1160    5.0830    1.1400 c         1 MOL      0.474343
     22 O5          5.2050    5.6270    1.3740 o         1 MOL     -0.540999
     23 C9          2.3670    6.6920    0.2050 c3        1 MOL     -0.101920
     24 C10         1.5710    7.0540   -1.0860 c3        1 MOL      0.139080
     25 C11         0.6970    8.2420   -0.8530 c3        1 MOL     -0.208508
     26 C12         0.1110    8.8110   -2.1570 c3        1 MOL      0.311402
     27 N3         -0.6510   10.0260   -1.9460 n4        1 MOL     -0.541173
     28 H8          1.5780    4.3910   -0.6350 hn        1 MOL      0.343775
     29 H9          4.0390    5.8460   -0.7780 h1        1 MOL      0.106747
     30 H10         2.9280    7.5260    0.6170 hc        1 MOL      0.048890
     31 H11         1.7020    6.3710    1.0040 hc        1 MOL      0.048890
     32 H12         0.8460    6.2970   -1.4070 hc        1 MOL     -0.019389
     33 H13         2.2580    7.0890   -1.9270 hc        1 MOL     -0.019389
     34 H14         1.2490    9.0860   -0.4210 hc        1 MOL      0.060773
     35 H15        -0.1920    7.9410   -0.2940 hc        1 MOL      0.060773
     36 H16        -0.4740    8.0490   -2.6770 hx        1 MOL      0.019337
     37 H17         0.9280    8.9850   -2.8610 hx        1 MOL      0.019337
     38 H18        -1.2980   10.1490   -2.7200 hn        1 MOL      0.368267
     39 H19        -1.2430    9.9530   -1.1250 hn        1 MOL      0.368267
     40 H20        -0.0240   10.8050   -1.8050 hn        1 MOL      0.368267
     41 N4          3.6990    4.0300    1.8630 n         1 MOL     -0.233849
     42 C13         4.4520    3.5250    3.0100 c3        1 MOL      0.023543
     43 C14         5.6640    2.6470    2.4340 c         1 MOL      0.377279
     44 O6          6.7040    2.4240    3.1050 o         1 MOL     -0.532473
     45 C15         3.5260    2.7660    3.9880 c3        1 MOL     -0.304778
     46 C16         2.6870    1.7550    3.2640 c         1 MOL      0.684766
     47 O7          1.5760    2.0420    2.7450 o         1 MOL     -0.681200
     48 O8          3.1470    0.5840    3.1230 o         1 MOL     -0.681200
     49 H21         2.8360    3.6110    1.5270 hn        1 MOL      0.185904
     50 H22         4.8970    4.3690    3.5340 h1        1 MOL      0.103264
     51 H23         2.8450    3.5050    4.4250 hc        1 MOL      0.094904
     52 H24         4.0000    2.1220    4.7240 hc        1 MOL      0.094904
     53 N5          5.4930    2.2320    1.1820 n         1 MOL      0.156586
     54 C17         6.4620    1.6470    0.2860 c3        1 MOL     -0.316011
     55 C18         6.7620    0.1500    0.4940 c         1 MOL      0.617463
     56 O9          7.8500   -0.2770    0.1540 o         1 MOL     -0.569216
     57 H25         4.5590    2.3020    0.7930 hn        1 MOL     -0.114293
     58 H26         7.4050    2.1780    0.4150 h1        1 MOL      0.135947
     59 H27         6.1390    1.7750   -0.7480 h1        1 MOL      0.135947
     60 N6          5.7990   -0.6060    1.1380 n         1 MOL     -0.257654
     61 C19         5.9360   -2.0570    1.5240 c3        1 MOL     -0.256548
     62 C20         5.7370   -3.0490    0.3000 c         1 MOL      0.410369
     63 O10         5.7230   -4.2450    0.5100 o         1 MOL     -0.463367
     64 C21         5.0870   -2.3770    2.7080 c3        1 MOL      0.110476
     65 C22         3.6300   -2.3830    2.5200 c         1 MOL      0.222107
     66 N7          2.9350   -2.7570    3.5950 n         1 MOL     -0.714563
     67 O11         2.9940   -2.1520    1.4890 o         1 MOL     -0.057333
     68 H28         4.9110   -0.1370    1.2130 hn        1 MOL      0.080963
     69 H29         6.9640   -2.2220    1.8380 h1        1 MOL      0.172083
     70 H30         5.4130   -1.8630    3.6150 hc        1 MOL      0.052249
     71 H31         5.4040   -3.3720    3.0080 hc        1 MOL      0.052249
     72 H32         3.4670   -2.9660    4.4330 hn        1 MOL      0.353100
     73 H33         1.9290   -2.7500    3.5130 hn        1 MOL      0.353100
     74 N8          5.6050   -2.5870   -0.9390 n         1 MOL     -0.274690
     75 C23         5.3350   -3.4120   -2.1340 c3        1 MOL     -0.312979
     76 C24         3.8030   -3.6430   -2.3270 c         1 MOL      0.557155
     77 O12         3.4360   -4.3610   -3.2990 o         1 MOL     -0.573915
     78 H34         5.5050   -1.5920   -1.1090 hn        1 MOL      0.334153
     79 H35         5.8500   -4.3580   -1.9430 h1        1 MOL      0.166693
     80 H36         5.6480   -2.8990   -3.0380 h1        1 MOL      0.166693
     81 N9          2.9210   -3.2860   -1.3560 n         1 MOL     -0.011620
     82 C25         1.5060   -3.7190   -1.3300 c3        1 MOL     -0.294701
     83 C26         0.4890   -2.5900   -1.1870 c         1 MOL      0.844473
     84 O13         0.7650   -1.6120   -0.5550 o         1 MOL     -0.728293
     85 C27         1.2610   -4.7170   -0.1690 c3        1 MOL      0.110985
     86 C28         2.0830   -5.9410   -0.4780 ca        1 MOL      0.087483
     87 C29         3.2580   -6.2750    0.1920 ca        1 MOL     -0.315304
     88 C30         1.7110   -6.7660   -1.5430 ca        1 MOL     -0.315304
     89 C31         4.1570   -7.2610   -0.3160 ca        1 MOL     -0.047658
     90 C32         2.5190   -7.8730   -1.9500 ca        1 MOL     -0.047658
     91 C33         3.7470   -8.1370   -1.3430 ca        1 MOL      0.155846
     92 O14         4.6230   -9.1420   -1.6750 oh        1 MOL     -0.448484
     93 H37         3.1360   -2.6590   -0.5990 hn        1 MOL     -0.029480
     94 H38         1.2480   -4.3040   -2.2180 h1        1 MOL      0.102169
     95 H39         0.2380   -5.0790   -0.1420 hc        1 MOL     -0.002161
     96 H40         1.3760   -4.2260    0.7900 hc        1 MOL     -0.002161
     97 H41         3.8140   -5.6300    0.8490 ha        1 MOL      0.156190
     98 H42         0.8320   -6.5290   -2.1330 ha        1 MOL      0.156190
     99 H43         5.0630   -7.5520    0.1950 ha        1 MOL      0.089661
    100 H44         2.1190   -8.4960   -2.7350 ha        1 MOL      0.089661
    101 H45         4.2370   -9.6800   -2.3710 ho        1 MOL      0.348456
    102 N10        -0.7370   -2.7320   -1.7770 n         1 MOL     -0.632015
    103 C34        -1.8790   -1.8280   -1.6110 c3        1 MOL      0.042085
    104 C35        -3.1410   -2.6780   -1.2540 c         1 MOL      0.545375
    105 O15        -3.5520   -3.5230   -2.0070 o         1 MOL     -0.556252
    106 C36        -2.0650   -1.0030   -2.9120 c3        1 MOL      0.018230
    107 C37        -0.7740   -0.1040   -3.1080 c3        1 MOL      0.085149
    108 C38        -3.3990   -0.2080   -3.0360 c3        1 MOL     -0.209754
    109 C39        -0.7100    0.5340   -4.4970 c3        1 MOL     -0.355855
    110 H46        -0.7690   -3.4520   -2.4730 hn        1 MOL      0.318560
    111 H47        -1.7130   -1.1380   -0.7790 h1        1 MOL      0.074924
    112 H48        -2.0370   -1.7310   -3.7310 hc        1 MOL      0.041562
    113 H49         0.0760   -0.7720   -3.0320 hc        1 MOL      0.061768
    114 H50        -0.6700    0.6710   -2.3470 hc        1 MOL      0.061768
    115 H51        -4.2480   -0.8790   -3.0870 hc        1 MOL      0.065570
    116 H52        -3.4590    0.5900   -2.2890 hc        1 MOL      0.065570
    117 H53        -3.3330    0.2890   -4.0060 hc        1 MOL      0.065570
    118 H54        -0.9600   -0.2000   -5.2590 hc        1 MOL      0.081953
    119 H55        -1.4620    1.3150   -4.6040 hc        1 MOL      0.081953
    120 H56         0.2900    0.9450   -4.6250 hc        1 MOL      0.081953
    121 N11        -3.8320   -2.4440   -0.1710 n         1 MOL     -0.402134
    122 C40        -5.1490   -3.0580    0.2800 c3        1 MOL      0.212188
    123 C41        -6.4240   -2.3770   -0.2480 c         1 MOL      0.351655
    124 O16        -6.3740   -1.2860   -0.8650 o         1 MOL     -0.315833
    125 C42        -5.1930   -3.1370    1.7920 c3        1 MOL     -0.259933
    126 O17        -5.6210   -1.8250    2.2780 oh        1 MOL     -0.351118
    127 H57        -3.4600   -1.6870    0.3780 hn        1 MOL      0.232324
    128 H58        -5.1790   -4.0980   -0.0200 h1        1 MOL      0.073769
    129 H59        -4.1920   -3.1680    2.2080 h1        1 MOL      0.128642
    130 H60        -5.8310   -3.9720    2.0860 h1        1 MOL      0.128642
    131 H61        -5.4330   -1.8210    3.2170 ho        1 MOL      0.372117
    132 N12        -7.6600   -2.8780   -0.0290 n         1 MOL     -0.462152
    133 C43        -8.8710   -2.2240   -0.5030 c3        1 MOL      0.144788
    134 C44        -9.0710   -0.8790    0.2120 c         1 MOL      0.446318
    135 O18        -9.1970    0.1790   -0.3230 o         1 MOL     -0.483597
    136 C45       -10.0950   -3.1450   -0.3520 c3        1 MOL     -0.357884
    137 H62        -7.8470   -3.7330    0.4850 hn        1 MOL      0.300677
    138 H63        -8.7870   -2.1210   -1.5850 h1        1 MOL      0.099412
    139 H64       -10.3520   -3.3860    0.6810 hc        1 MOL      0.105814
    140 H65       -10.8750   -2.6220   -0.9180 hc        1 MOL      0.105814
    141 H66        -9.9230   -4.0690   -0.8860 hc        1 MOL      0.105814
    142 N13        -8.9460   -0.9050    1.5580 n         1 MOL     -0.383928
    143 C46        -8.9270    0.2240    2.4530 c3        1 MOL      0.085619
    144 C47        -7.8370    1.2070    2.0530 c         1 MOL      0.383627
    145 O19        -8.0070    2.4020    2.1380 o         1 MOL     -0.525285
    146 C48        -8.6050   -0.2700    3.8380 c3        1 MOL     -0.274793
    147 H67        -8.9110   -1.8370    1.9410 hn        1 MOL      0.255915
    148 H68        -9.8860    0.7460    2.3330 h1        1 MOL      0.101817
    149 H69        -9.3670   -0.9710    4.1750 hc        1 MOL      0.076751
    150 H70        -7.6830   -0.8390    3.8980 hc        1 MOL      0.076751
    151 H71        -8.6540    0.6020    4.4890 hc        1 MOL      0.076751
    152 N14        -6.6880    0.7610    1.5570 n         1 MOL     -0.000809
    153 C49        -5.5870    1.6210    1.0630 c3        1 MOL     -0.068756
    154 C50        -5.8780    2.2670   -0.3320 c         1 MOL      0.445693
    155 O20        -5.6160    3.4590   -0.5420 o         1 MOL     -0.556517
    156 C51        -4.1700    0.8030    1.0040 c3        1 MOL     -0.028282
    157 C52        -2.9870    1.7810    0.9730 c3        1 MOL     -0.205554
    158 C53        -1.5810    1.1330    1.1690 c         1 MOL      0.791804
    159 O21        -1.4610   -0.0170    1.6850 o         1 MOL     -0.784196
    160 O22        -0.6650    1.7910    0.7540 o         1 MOL     -0.784196
    161 H72        -6.4750   -0.2120    1.6890 hn        1 MOL     -0.048670
    162 H73        -5.4350    2.4420    1.7570 h1        1 MOL      0.081950
    163 H74        -4.1830    0.1730    0.1100 hc        1 MOL      0.003617
    164 H75        -4.0760    0.1770    1.8940 hc        1 MOL      0.003617
    165 H76        -3.1670    2.5760    1.6970 hc        1 MOL      0.076510
    166 H77        -2.9190    2.2490   -0.0060 hc        1 MOL      0.076510
    167 N15        -6.5480    1.5070   -1.2490 n         1 MOL     -0.071163
    168 C54        -6.8910    1.9810   -2.6220 c3        1 MOL     -0.088503
    169 H78        -7.8460    1.5510   -2.9270 h1        1 MOL      0.051366
    170 H79        -6.9650    3.0680   -2.6240 h1        1 MOL      0.051366
    171 H80        -6.1130    1.6680   -3.3200 h1        1 MOL      0.051366
    172 H81        -6.6320    0.5100   -1.0980 hn        1 MOL      0.061103
    173 Ca1         1.0860   -0.2390    1.6580 Ca        1 MOL      1.712373
    174 O23         0.1330   -2.5900    2.5340 oh        1 MOL     -0.873717
    175 H82        -0.4230   -3.3360    2.2890 ho        1 MOL      0.421346
    176 H83        -0.2480   -2.2650    3.3480 ho        1 MOL      0.421346
    177 O24         0.3150    0.0160    4.2820 oh        1 MOL     -0.873717
    178 H84        -0.0360   -0.4310    5.0610 ho        1 MOL      0.421346
    179 H85         0.0530    0.9260    4.3800 ho        1 MOL      0.421346
@<TRIPOS>BOND
     1    1    2 1   
     2    1    4 1   
     3    1    5 1   
     4    1    6 1   
     5    2    3 2   
     6    2    7 1   
     7    7    8 1   
     8    7   15 1   
     9    8    9 1   
    10    8   11 1   
    11    8   16 1   
    12    9   10 2   
    13    9   19 1   
    14   11   12 1   
    15   11   17 1   
    16   11   18 1   
    17   12   13 1   
    18   12   14 1   
    19   19   20 1   
    20   19   28 1   
    21   20   21 1   
    22   20   23 1   
    23   20   29 1   
    24   21   22 2   
    25   21   41 1   
    26   23   24 1   
    27   23   30 1   
    28   23   31 1   
    29   24   25 1   
    30   24   32 1   
    31   24   33 1   
    32   25   26 1   
    33   25   34 1   
    34   25   35 1   
    35   26   27 1   
    36   26   36 1   
    37   26   37 1   
    38   27   38 1   
    39   27   39 1   
    40   27   40 1   
    41   41   42 1   
    42   41   49 1   
    43   42   43 1   
    44   42   45 1   
    45   42   50 1   
    46   43   44 2   
    47   43   53 1   
    48   45   46 1   
    49   45   51 1   
    50   45   52 1   
    51   46   47 1   
    52   46   48 1   
    53   53   54 1   
    54   53   57 1   
    55   54   55 1   
    56   54   58 1   
    57   54   59 1   
    58   55   56 2   
    59   55   60 1   
    60   60   61 1   
    61   60   68 1   
    62   61   62 1   
    63   61   64 1   
    64   61   69 1   
    65   62   63 2   
    66   62   74 1   
    67   64   65 1   
    68   64   70 1   
    69   64   71 1   
    70   65   66 1   
    71   65   67 2   
    72   66   72 1   
    73   66   73 1   
    74   74   75 1   
    75   74   78 1   
    76   75   76 1   
    77   75   79 1   
    78   75   80 1   
    79   76   77 2   
    80   76   81 1   
    81   81   82 1   
    82   81   93 1   
    83   82   83 1   
    84   82   85 1   
    85   82   94 1   
    86   83   84 2   
    87   83  102 1   
    88   85   86 1   
    89   85   95 1   
    90   85   96 1   
    91   86   87 ar  
    92   86   88 ar  
    93   87   89 ar  
    94   87   97 1   
    95   88   90 ar  
    96   88   98 1   
    97   89   91 ar  
    98   89   99 1   
    99   90   91 ar  
   100   90  100 1   
   101   91   92 1   
   102   92  101 1   
   103  102  103 1   
   104  102  110 1   
   105  103  104 1   
   106  103  106 1   
   107  103  111 1   
   108  104  105 2   
   109  104  121 1   
   110  106  107 1   
   111  106  108 1   
   112  106  112 1   
   113  107  109 1   
   114  107  113 1   
   115  107  114 1   
   116  108  115 1   
   117  108  116 1   
   118  108  117 1   
   119  109  118 1   
   120  109  119 1   
   121  109  120 1   
   122  121  122 1   
   123  121  127 1   
   124  122  123 1   
   125  122  125 1   
   126  122  128 1   
   127  123  124 2   
   128  123  132 1   
   129  125  126 1   
   130  125  129 1   
   131  125  130 1   
   132  126  131 1   
   133  132  133 1   
   134  132  137 1   
   135  133  134 1   
   136  133  136 1   
   137  133  138 1   
   138  134  135 2   
   139  134  142 1   
   140  136  139 1   
   141  136  140 1   
   142  136  141 1   
   143  142  143 1   
   144  142  147 1   
   145  143  144 1   
   146  143  146 1   
   147  143  148 1   
   148  144  145 2   
   149  144  152 1   
   150  146  149 1   
   151  146  150 1   
   152  146  151 1   
   153  152  153 1   
   154  152  161 1   
   155  153  154 1   
   156  153  156 1   
   157  153  162 1   
   158  154  155 2   
   159  154  167 1   
   160  156  157 1   
   161  156  163 1   
   162  156  164 1   
   163  157  158 1   
   164  157  165 1   
   165  157  166 1   
   166  158  159 1   
   167  158  160 1   
   168  167  168 1   
   169  167  172 1   
   170  168  169 1   
   171  168  170 1   
   172  168  171 1   
   173  174  175 1   
   174  174  176 1   
   175  177  178 1   
   176  177  179 1   
@<TRIPOS>SUBSTRUCTURE
     1 MOL         1 TEMP              0 ****  ****    0 ROOT
