@<TRIPOS>MOLECULE
MOL
  189   185     1     0     0
SMALL
resp


@<TRIPOS>ATOM
      1 C1          0.1160    2.5530    6.0920 c3        1 MOL     -0.354464
      2 C2         -0.1820    2.1740    4.6230 c         1 MOL      0.649581
      3 O1          0.6060    2.5040    3.7050 o         1 MOL     -0.607828
      4 H1         -0.8130    2.8260    6.5910 hc        1 MOL      0.098520
      5 H2          0.5670    1.7030    6.6030 hc        1 MOL      0.098520
      6 H3          0.8040    3.3990    6.1170 hc        1 MOL      0.098520
      7 N1         -1.3580    1.6160    4.3210 n         1 MOL     -0.560026
      8 C3         -1.8760    1.3870    2.8940 c3        1 MOL      0.160984
      9 C4         -2.2330    2.7240    2.2280 c         1 MOL      0.526183
     10 O2         -3.2430    3.3560    2.6180 o         1 MOL     -0.577410
     11 C5         -3.0390    0.4030    3.0590 c3        1 MOL     -0.219667
     12 C6         -3.6700   -0.0860    1.7370 c         1 MOL      0.851441
     13 O3         -3.1780    0.3860    0.6920 o         1 MOL     -0.702433
     14 O4         -4.6120   -0.9580    1.6680 o         1 MOL     -0.702433
     15 H4         -1.9350    1.1640    5.0090 hn        1 MOL      0.315169
     16 H5         -1.0820    0.9030    2.3310 h1        1 MOL     -0.096940
     17 H6         -3.8180    0.8960    3.6500 hc        1 MOL      0.042580
     18 H7         -2.7110   -0.5260    3.5210 hc        1 MOL      0.042580
     19 N2         -1.5540    3.2390    1.2110 n         1 MOL     -0.098923
     20 C7         -1.7100    4.6210    0.7910 c3        1 MOL      0.006631
     21 C8         -3.0010    4.8770   -0.1090 c         1 MOL      0.393335
     22 O5         -3.6450    5.8860    0.0170 o         1 MOL     -0.550834
     23 C9         -0.3950    4.9650    0.1100 c3        1 MOL     -0.131395
     24 C10        -0.4220    6.3980   -0.3870 c3        1 MOL     -0.201209
     25 C11        -0.8350    7.3670    0.7130 c3        1 MOL     -0.031722
     26 C12        -0.4090    8.7760    0.3240 c3        1 MOL      0.115369
     27 N3         -0.3580    9.6660    1.4910 n4        1 MOL     -0.335568
     28 H8         -0.7330    2.6790    1.0170 hn        1 MOL      0.135342
     29 H9         -1.8350    5.1580    1.7280 h1        1 MOL      0.062625
     30 H10        -0.1040    4.3490   -0.7400 hc        1 MOL      0.084978
     31 H11         0.3170    4.8460    0.9290 hc        1 MOL      0.084978
     32 H12        -1.0770    6.4500   -1.2530 hc        1 MOL      0.072654
     33 H13         0.5570    6.6620   -0.7960 hc        1 MOL      0.072654
     34 H14        -0.3570    7.1500    1.6710 hc        1 MOL      0.049431
     35 H15        -1.9000    7.3230    0.9120 hc        1 MOL      0.049431
     36 H16        -1.0250    9.2420   -0.4430 hx        1 MOL      0.056283
     37 H17         0.5750    8.7660   -0.1560 hx        1 MOL      0.056283
     38 H18        -1.2430    9.6040    1.9810 hn        1 MOL      0.315681
     39 H19         0.2890    9.2990    2.1780 hn        1 MOL      0.315681
     40 H20        -0.1130   10.6150    1.2760 hn        1 MOL      0.315681
     41 N4         -3.3160    3.9520   -0.9650 n         1 MOL     -0.152360
     42 C13        -4.5020    3.8670   -1.7860 c3        1 MOL      0.052726
     43 C14        -5.6490    3.0410   -1.1620 c         1 MOL      0.387519
     44 O6         -6.7690    3.2270   -1.6360 o         1 MOL     -0.541848
     45 C15        -4.0530    3.3400   -3.1680 c3        1 MOL     -0.277661
     46 C16        -3.0190    2.1670   -3.1200 c         1 MOL      0.750185
     47 O7         -2.9440    1.3940   -2.1380 o         1 MOL     -0.715598
     48 O8         -2.2980    1.9920   -4.1280 o         1 MOL     -0.715598
     49 H21        -2.6470    3.1960   -0.9590 hn        1 MOL      0.119495
     50 H22        -4.9130    4.8520   -2.0000 h1        1 MOL      0.083766
     51 H23        -3.5580    4.1550   -3.7090 hc        1 MOL      0.078714
     52 H24        -4.9400    3.0200   -3.7060 hc        1 MOL      0.078714
     53 N5         -5.4870    2.1420   -0.2210 n         1 MOL     -0.059626
     54 C17        -6.4650    1.3880    0.4960 c3        1 MOL     -0.277268
     55 C18        -7.0420    0.2850   -0.3850 c         1 MOL      0.620398
     56 O9         -8.2550    0.2170   -0.5530 o         1 MOL     -0.572540
     57 H25        -4.5550    2.0090    0.1500 hn        1 MOL      0.129469
     58 H26        -7.3160    2.0600    0.6370 h1        1 MOL      0.116195
     59 H27        -6.0840    1.1650    1.4970 h1        1 MOL      0.116195
     60 N6         -6.1420   -0.5800   -0.8190 n         1 MOL     -0.270038
     61 C19        -6.6570   -1.8500   -1.5010 c3        1 MOL      0.101047
     62 C20        -6.8290   -3.1440   -0.7190 c         1 MOL      0.344299
     63 O10        -7.4330   -4.1320   -1.1840 o         1 MOL     -0.525594
     64 C21        -5.7930   -2.2760   -2.6910 c3        1 MOL     -0.395197
     65 C22        -4.3730   -2.0950   -2.3510 c         1 MOL      0.875569
     66 O11        -3.8420   -2.5750   -1.3140 o         1 MOL     -0.759565
     67 O12        -3.5100   -1.5570   -3.0580 o         1 MOL     -0.759565
     68 H28        -5.1860   -0.6180   -0.5130 hn        1 MOL      0.047169
     69 H29        -7.6640   -1.6650   -1.8880 h1        1 MOL      0.106820
     70 H30        -5.9930   -1.5400   -3.4680 hc        1 MOL      0.118226
     71 H31        -5.9520   -3.3360   -2.9020 hc        1 MOL      0.118226
     72 N7         -6.2970   -3.0800    0.4780 n         1 MOL     -0.235541
     73 C23        -6.1230   -4.2370    1.3820 c3        1 MOL      0.070774
     74 C24        -4.7370   -4.9530    1.4140 c         1 MOL      0.439566
     75 O13        -4.7280   -6.0610    1.8830 o         1 MOL     -0.539364
     76 H32        -5.6840   -2.2930    0.6500 hn        1 MOL      0.203402
     77 H33        -6.8010   -5.0610    1.1700 h1        1 MOL      0.041624
     78 H34        -6.4190   -3.8770    2.3700 h1        1 MOL      0.041624
     79 N8         -3.6480   -4.3460    0.9780 n         1 MOL     -0.108080
     80 C25        -2.3110   -4.8470    0.9540 c3        1 MOL     -0.301493
     81 C26        -1.2690   -3.7290    1.0400 c         1 MOL      0.748857
     82 O14        -1.5110   -2.6220    0.6360 o         1 MOL     -0.608740
     83 C27        -2.0190   -5.6570   -0.2890 c3        1 MOL      0.466349
     84 C28        -2.6730   -7.0330   -0.3950 c3        1 MOL     -0.600186
     85 O15        -2.6740   -5.0060   -1.4300 oh        1 MOL     -0.676863
     86 H35        -3.6840   -3.3600    0.7220 hn        1 MOL      0.140453
     87 H36        -2.1400   -5.4760    1.8280 h1        1 MOL      0.110693
     88 H37        -0.9670   -5.8750   -0.4530 h1        1 MOL      0.008361
     89 H38        -3.2250   -4.2510   -1.2230 ho        1 MOL      0.455953
     90 H39        -2.5990   -7.6310    0.5180 hc        1 MOL      0.162891
     91 H40        -3.7330   -7.0420   -0.6390 hc        1 MOL      0.162891
     92 H41        -2.1570   -7.4890   -1.2490 hc        1 MOL      0.162891
     93 N9         -0.0360   -4.1050    1.5020 n         1 MOL     -0.658302
     94 C29         1.1700   -3.2220    1.6550 c3        1 MOL      0.212505
     95 C30         2.2700   -3.6680    0.6520 c         1 MOL      0.375891
     96 O16         2.8490   -4.7370    0.7160 o         1 MOL     -0.522838
     97 C31         1.6480   -3.2980    3.1130 c3        1 MOL      0.173377
     98 C32         0.6710   -2.7090    4.2030 c3        1 MOL     -0.301458
     99 C33         3.0930   -2.7810    3.2850 c3        1 MOL     -0.272082
    100 C34         0.4800   -1.2150    3.9900 c3        1 MOL      0.138580
    101 H42        -0.0100   -4.9750    2.0110 hn        1 MOL      0.308979
    102 H43         0.9130   -2.2090    1.3450 h1        1 MOL      0.013269
    103 H44         1.6660   -4.3590    3.3750 hc        1 MOL     -0.001301
    104 H45         1.0950   -2.9450    5.1760 hc        1 MOL      0.072312
    105 H46        -0.3290   -3.0930    4.0220 hc        1 MOL      0.072312
    106 H47         3.1970   -2.5540    4.3410 hc        1 MOL      0.056872
    107 H48         3.8040   -3.4490    2.8150 hc        1 MOL      0.056872
    108 H49         3.1510   -1.8670    2.6890 hc        1 MOL      0.056872
    109 H50        -0.2550   -1.0050    3.2150 hc        1 MOL      0.011761
    110 H51         0.0990   -0.8970    4.9600 hc        1 MOL      0.011761
    111 H52         1.4870   -0.8160    3.8170 hc        1 MOL      0.011761
    112 N10         2.6760   -2.7500   -0.2280 n         1 MOL     -0.107924
    113 C35         3.7720   -2.8700   -1.1010 c3        1 MOL      0.037831
    114 C36         5.0450   -2.3770   -0.4340 c         1 MOL      0.198125
    115 O17         4.9910   -1.6610    0.5220 o         1 MOL     -0.115503
    116 C37         3.4830   -2.0430   -2.3830 c3        1 MOL      0.214581
    117 C38         2.3630   -2.4810   -3.3040 c3        1 MOL     -0.522819
    118 O18         3.1740   -0.7040   -2.1590 oh        1 MOL     -0.477584
    119 H53         2.1430   -1.8870   -0.2080 hn        1 MOL      0.045327
    120 H54         3.9910   -3.9010   -1.3840 h1        1 MOL      0.069863
    121 H55         4.3970   -1.9640   -2.9800 h1        1 MOL      0.028990
    122 H56         2.3280   -0.5820   -1.7360 ho        1 MOL      0.319297
    123 H57         2.5500   -3.5160   -3.6040 hc        1 MOL      0.146447
    124 H58         1.4140   -2.4220   -2.7750 hc        1 MOL      0.146447
    125 H59         2.1940   -1.8080   -4.1460 hc        1 MOL      0.146447
    126 N11         6.2170   -2.6690   -1.0820 n         1 MOL     -0.252558
    127 C39         7.4910   -2.0800   -0.7130 c3        1 MOL     -0.174432
    128 C40         7.4800   -0.6180   -0.4730 c         1 MOL      0.458161
    129 O19         8.0230   -0.2860    0.5390 o         1 MOL     -0.493080
    130 C41         8.5140   -2.2680   -1.8400 c3        1 MOL      0.284419
    131 C42         9.1550   -3.6650   -1.9520 c3        1 MOL     -0.405876
    132 O20         8.0510   -1.7970   -3.0830 oh        1 MOL     -0.660342
    133 H60         6.0750   -3.2570   -1.8980 hn        1 MOL      0.266414
    134 H61         7.8360   -2.6360    0.1580 h1        1 MOL      0.148103
    135 H62         9.3230   -1.5590   -1.6460 h1        1 MOL      0.057892
    136 H63         8.7930   -1.8440   -3.6890 ho        1 MOL      0.425717
    137 H64         9.6260   -3.9980   -1.0250 hc        1 MOL      0.116783
    138 H65         8.4260   -4.4290   -2.2390 hc        1 MOL      0.116783
    139 H66        10.0110   -3.5200   -2.6190 hc        1 MOL      0.116783
    140 N12         6.8020    0.2130   -1.2920 n         1 MOL     -0.317056
    141 C43         6.8240    1.6940   -0.9730 c3        1 MOL     -0.020095
    142 C44         5.9960    2.1170    0.2670 c         1 MOL      0.401030
    143 O21         6.2070    3.2020    0.7580 o         1 MOL     -0.522530
    144 C45         6.4240    2.4450   -2.2880 c3        1 MOL     -0.299201
    145 C46         4.9550    2.3170   -2.6120 c3        1 MOL      0.257796
    146 C47         4.4850    2.9180   -3.9180 c3        1 MOL     -0.131054
    147 C48         3.1540    2.4090   -4.2370 c3        1 MOL      0.243392
    148 N13         2.6420    3.1310   -5.3770 n4        1 MOL     -0.431833
    149 H67         6.3660   -0.0530   -2.1630 hn        1 MOL      0.274735
    150 H68         7.8630    1.9750   -0.7780 h1        1 MOL      0.138583
    151 H69         6.9820    2.1650   -3.1760 hc        1 MOL      0.085352
    152 H70         6.5630    3.4990   -2.0550 hc        1 MOL      0.085352
    153 H71         4.3000    2.7740   -1.8780 hc        1 MOL     -0.008462
    154 H72         4.6580    1.2680   -2.6700 hc        1 MOL     -0.008462
    155 H73         5.0800    2.5850   -4.7570 hc        1 MOL      0.015908
    156 H74         4.5080    4.0000   -3.7880 hc        1 MOL      0.015908
    157 H75         2.5290    2.6800   -3.3830 hx        1 MOL      0.035125
    158 H76         3.0810    1.3250   -4.3270 hx        1 MOL      0.035125
    159 H77         2.7500    4.1410   -5.3340 hn        1 MOL      0.337057
    160 H78         3.0980    2.8000   -6.2160 hn        1 MOL      0.337057
    161 H79         1.6900    2.8250   -5.4500 hn        1 MOL      0.337057
    162 N14         5.0870    1.2640    0.7240 n         1 MOL     -0.060728
    163 C49         4.1750    1.3790    1.9010 c3        1 MOL     -0.034461
    164 C50         4.8470    0.8050    3.1530 c         1 MOL      0.453610
    165 O22         4.7480    1.3550    4.2890 o         1 MOL     -0.548540
    166 C51         2.9110    0.6510    1.5670 c3        1 MOL      0.203630
    167 C52         2.1230    1.4590    0.4540 c3        1 MOL      0.352946
    168 C53         0.8670    0.7190   -0.0160 c         1 MOL      0.487113
    169 O23         0.9050   -0.4120   -0.5560 o         1 MOL     -0.621177
    170 O24        -0.2080    1.3520   -0.1170 o         1 MOL     -0.621177
    171 H80         5.2400    0.3490    0.3380 hn        1 MOL     -0.093704
    172 H81         3.9710    2.4400    2.0870 h1        1 MOL      0.068932
    173 H82         2.3350    0.6700    2.4820 hc        1 MOL     -0.070427
    174 H83         3.1430   -0.3550    1.2110 hc        1 MOL     -0.070427
    175 H84         2.8080    1.5010   -0.3940 hc        1 MOL     -0.127461
    176 H85         1.9310    2.5120    0.6440 hc        1 MOL     -0.127461
    177 N15         5.6150   -0.3000    3.0170 n         1 MOL     -0.092432
    178 C54         6.5340   -0.8280    4.0060 c3        1 MOL     -0.296925
    179 H86         7.5430   -0.8400    3.5930 h1        1 MOL      0.110705
    180 H87         6.5140   -0.1980    4.8960 h1        1 MOL      0.110705
    181 H88         6.2380   -1.8430    4.2720 h1        1 MOL      0.110705
    182 H89         5.6880   -0.7850    2.1330 hn        1 MOL      0.143852
    183 Ca1        -1.8390   -0.6500   -1.2190 Ca        1 MOL      1.814329
    184 O25        -0.4050    0.0150   -3.5490 oh        1 MOL     -0.889008
    185 H90         0.0510   -0.2680   -4.3430 ho        1 MOL      0.401399
    186 H91        -1.1830    0.4760   -3.8700 ho        1 MOL      0.401399
    187 O26        -0.9730   -2.9510   -2.1440 oh        1 MOL     -0.889008
    188 H92        -1.5960   -3.5450   -1.7290 ho        1 MOL      0.401399
    189 H93        -0.5010   -3.5010   -2.7790 ho        1 MOL      0.401399
@<TRIPOS>BOND
     1    1    2 1   
     2    1    4 1   
     3    1    5 1   
     4    1    6 1   
     5    2    3 2   
     6    2    7 1   
     7    7    8 1   
     8    7   15 1   
     9    8    9 1   
    10    8   11 1   
    11    8   16 1   
    12    9   10 2   
    13    9   19 1   
    14   11   12 1   
    15   11   17 1   
    16   11   18 1   
    17   12   13 1   
    18   12   14 1   
    19   19   20 1   
    20   19   28 1   
    21   20   21 1   
    22   20   23 1   
    23   20   29 1   
    24   21   22 2   
    25   21   41 1   
    26   23   24 1   
    27   23   30 1   
    28   23   31 1   
    29   24   25 1   
    30   24   32 1   
    31   24   33 1   
    32   25   26 1   
    33   25   34 1   
    34   25   35 1   
    35   26   27 1   
    36   26   36 1   
    37   26   37 1   
    38   27   38 1   
    39   27   39 1   
    40   27   40 1   
    41   41   42 1   
    42   41   49 1   
    43   42   43 1   
    44   42   45 1   
    45   42   50 1   
    46   43   44 2   
    47   43   53 1   
    48   45   46 1   
    49   45   51 1   
    50   45   52 1   
    51   46   47 1   
    52   46   48 1   
    53   53   54 1   
    54   53   57 1   
    55   54   55 1   
    56   54   58 1   
    57   54   59 1   
    58   55   56 2   
    59   55   60 1   
    60   60   61 1   
    61   60   68 1   
    62   61   62 1   
    63   61   64 1   
    64   61   69 1   
    65   62   63 2   
    66   62   72 1   
    67   64   65 1   
    68   64   70 1   
    69   64   71 1   
    70   65   66 1   
    71   65   67 1   
    72   72   73 1   
    73   72   76 1   
    74   73   74 1   
    75   73   77 1   
    76   73   78 1   
    77   74   75 2   
    78   74   79 1   
    79   79   80 1   
    80   79   86 1   
    81   80   81 1   
    82   80   83 1   
    83   80   87 1   
    84   81   82 2   
    85   81   93 1   
    86   83   84 1   
    87   83   85 1   
    88   83   88 1   
    89   84   90 1   
    90   84   91 1   
    91   84   92 1   
    92   85   89 1   
    93   93   94 1   
    94   93  101 1   
    95   94   95 1   
    96   94   97 1   
    97   94  102 1   
    98   95   96 2   
    99   95  112 1   
   100   97   98 1   
   101   97   99 1   
   102   97  103 1   
   103   98  100 1   
   104   98  104 1   
   105   98  105 1   
   106   99  106 1   
   107   99  107 1   
   108   99  108 1   
   109  100  109 1   
   110  100  110 1   
   111  100  111 1   
   112  112  113 1   
   113  112  119 1   
   114  113  114 1   
   115  113  116 1   
   116  113  120 1   
   117  114  115 2   
   118  114  126 1   
   119  116  117 1   
   120  116  118 1   
   121  116  121 1   
   122  117  123 1   
   123  117  124 1   
   124  117  125 1   
   125  118  122 1   
   126  126  127 1   
   127  126  133 1   
   128  127  128 1   
   129  127  130 1   
   130  127  134 1   
   131  128  129 2   
   132  128  140 1   
   133  130  131 1   
   134  130  132 1   
   135  130  135 1   
   136  131  137 1   
   137  131  138 1   
   138  131  139 1   
   139  132  136 1   
   140  140  141 1   
   141  140  149 1   
   142  141  142 1   
   143  141  144 1   
   144  141  150 1   
   145  142  143 2   
   146  142  162 1   
   147  144  145 1   
   148  144  151 1   
   149  144  152 1   
   150  145  146 1   
   151  145  153 1   
   152  145  154 1   
   153  146  147 1   
   154  146  155 1   
   155  146  156 1   
   156  147  148 1   
   157  147  157 1   
   158  147  158 1   
   159  148  159 1   
   160  148  160 1   
   161  148  161 1   
   162  162  163 1   
   163  162  171 1   
   164  163  164 1   
   165  163  166 1   
   166  163  172 1   
   167  164  165 2   
   168  164  177 1   
   169  166  167 1   
   170  166  173 1   
   171  166  174 1   
   172  167  168 1   
   173  167  175 1   
   174  167  176 1   
   175  168  169 1   
   176  168  170 1   
   177  177  178 1   
   178  177  182 1   
   179  178  179 1   
   180  178  180 1   
   181  178  181 1   
   182  184  185 1   
   183  184  186 1   
   184  187  188 1   
   185  187  189 1   
@<TRIPOS>SUBSTRUCTURE
     1 MOL         1 TEMP              0 ****  ****    0 ROOT
