@<TRIPOS>MOLECULE
MOL
  189   185     1     0     0
SMALL
resp


@<TRIPOS>ATOM
      1 C1         -0.3110    3.4060    4.9420 c3        1 MOL     -0.382767
      2 C2         -0.7540    3.1180    3.4960 c         1 MOL      0.662838
      3 O1         -0.0190    3.3660    2.5480 o         1 MOL     -0.561495
      4 H1          0.2400    4.3460    4.9730 hc        1 MOL      0.093785
      5 H2         -1.1890    3.4780    5.5840 hc        1 MOL      0.093785
      6 H3          0.3310    2.5980    5.2940 hc        1 MOL      0.093785
      7 N1         -1.8750    2.4570    3.3720 n         1 MOL     -0.564412
      8 C3         -2.4580    1.8850    2.1870 c3        1 MOL      0.335836
      9 C4         -3.0900    2.9640    1.3200 c         1 MOL      0.224251
     10 O2         -4.1990    3.4290    1.6600 o         1 MOL     -0.516794
     11 C5         -3.4430    0.8080    2.5510 c3        1 MOL     -0.467326
     12 C6         -4.1350    0.1260    1.3660 c         1 MOL      0.901542
     13 O3         -3.7070    0.3200    0.2290 o         1 MOL     -0.663748
     14 O4         -5.1150   -0.5640    1.6350 o         1 MOL     -0.663748
     15 H4         -2.2260    2.1240    4.2570 hn        1 MOL      0.321770
     16 H5         -1.6580    1.4390    1.5890 h1        1 MOL     -0.002511
     17 H6         -4.2140    1.1530    3.2340 hc        1 MOL      0.096120
     18 H7         -2.8370    0.0080    2.9920 hc        1 MOL      0.096120
     19 N2         -2.4660    3.4380    0.2470 n         1 MOL     -0.026633
     20 C7         -2.8120    4.7480   -0.3290 c3        1 MOL      0.118115
     21 C8         -4.0630    4.6640   -1.2430 c         1 MOL      0.251741
     22 O5         -4.6300    5.6620   -1.6940 o         1 MOL     -0.551329
     23 C9         -1.6530    5.4610   -1.0290 c3        1 MOL      0.026818
     24 C10        -0.5020    5.6990   -0.1170 c3        1 MOL      0.165051
     25 C11        -0.5230    6.9070    0.8190 c3        1 MOL     -0.327174
     26 C12        -0.7010    6.5460    2.2800 c3        1 MOL      0.269139
     27 N3         -0.7130    7.7060    3.2250 n4        1 MOL     -0.437450
     28 H8         -1.5900    2.9830    0.0020 hn        1 MOL      0.201115
     29 H9         -2.9840    5.3890    0.5290 h1        1 MOL     -0.012017
     30 H10        -2.0200    6.4540   -1.3080 hc        1 MOL     -0.000514
     31 H11        -1.4350    4.8680   -1.9170 hc        1 MOL     -0.000514
     32 H12         0.2900    5.8870   -0.8410 hc        1 MOL     -0.001280
     33 H13        -0.1200    4.7830    0.3330 hc        1 MOL     -0.001280
     34 H14        -1.3950    7.5060    0.5540 hc        1 MOL      0.092480
     35 H15         0.3660    7.5090    0.6290 hc        1 MOL      0.092480
     36 H16         0.0280    5.8700    2.7330 hx        1 MOL      0.022994
     37 H17        -1.5920    5.9270    2.3930 hx        1 MOL      0.022994
     38 H18        -1.5440    8.2800    3.2780 hn        1 MOL      0.331418
     39 H19        -0.5730    7.3020    4.1350 hn        1 MOL      0.331418
     40 H20         0.0340    8.3720    3.1450 hn        1 MOL      0.331418
     41 N4         -4.3590    3.4800   -1.7290 n         1 MOL      0.086512
     42 C13        -5.3260    3.1530   -2.8280 c3        1 MOL     -0.062428
     43 C14        -6.4850    2.2760   -2.3770 c         1 MOL      0.388992
     44 O6         -7.2930    1.8640   -3.1720 o         1 MOL     -0.463065
     45 C15        -4.6480    2.4140   -4.0070 c3        1 MOL     -0.109089
     46 C16        -3.3040    1.7130   -3.8750 c         1 MOL      0.754283
     47 O7         -2.7930    1.4280   -2.7840 o         1 MOL     -0.680188
     48 O8         -2.6950    1.4790   -4.9520 o         1 MOL     -0.680188
     49 H21        -3.7200    2.7130   -1.5550 hn        1 MOL     -0.004916
     50 H22        -5.7640    4.0930   -3.1700 h1        1 MOL      0.102773
     51 H23        -4.3890    3.2780   -4.6300 hc        1 MOL      0.037703
     52 H24        -5.3150    1.8460   -4.6570 hc        1 MOL      0.037703
     53 N5         -6.4810    1.9760   -1.0380 n         1 MOL     -0.265706
     54 C17        -7.4780    1.1630   -0.3650 c3        1 MOL      0.032483
     55 C18        -7.6840   -0.2090   -0.9190 c         1 MOL      0.398426
     56 O9         -8.8440   -0.5040   -1.3210 o         1 MOL     -0.554632
     57 H25        -5.7120    2.3670   -0.5120 hn        1 MOL      0.141052
     58 H26        -8.4510    1.6730   -0.3420 h1        1 MOL      0.038570
     59 H27        -7.2110    0.8730    0.6530 h1        1 MOL      0.038570
     60 N6         -6.6170   -1.0080   -0.9210 n         1 MOL     -0.068019
     61 C19        -6.7130   -2.3660   -1.4700 c3        1 MOL     -0.052232
     62 C20        -6.6530   -3.4440   -0.3580 c         1 MOL      0.354030
     63 O10        -6.7400   -4.6120   -0.6480 o         1 MOL     -0.487456
     64 C21        -5.7680   -2.5560   -2.5970 c3        1 MOL     -0.153695
     65 C22        -4.4080   -2.0920   -2.3250 c         1 MOL      0.660407
     66 O11        -3.7520   -1.4000   -3.1590 o         1 MOL     -0.680295
     67 O12        -3.8450   -2.3470   -1.2490 o         1 MOL     -0.680295
     68 H28        -5.6640   -0.6900   -0.7760 hn        1 MOL      0.125360
     69 H29        -7.7160   -2.4320   -1.8880 h1        1 MOL      0.110281
     70 H30        -6.1580   -1.9300   -3.3960 hc        1 MOL      0.073658
     71 H31        -5.8000   -3.5860   -2.9480 hc        1 MOL      0.073658
     72 N7         -6.3880   -2.9910    0.8900 n         1 MOL     -0.215179
     73 C23        -6.1970   -3.8320    2.0700 c3        1 MOL     -0.187350
     74 C24        -4.8660   -4.4310    2.1540 c         1 MOL      0.577913
     75 O13        -4.6430   -5.4260    2.8860 o         1 MOL     -0.602139
     76 H32        -6.1600   -2.0120    0.9540 hn        1 MOL      0.175226
     77 H33        -6.9410   -4.6220    2.1740 h1        1 MOL      0.104474
     78 H34        -6.2000   -3.1250    2.8950 h1        1 MOL      0.104474
     79 N8         -3.9190   -3.9630    1.3520 n         1 MOL     -0.116394
     80 C25        -2.5500   -4.4520    1.3100 c3        1 MOL     -0.408092
     81 C26        -1.5580   -3.3040    1.4090 c         1 MOL      0.744015
     82 O14        -1.6780   -2.2680    0.6780 o         1 MOL     -0.657040
     83 C27        -2.3270   -5.2950    0.0420 c3        1 MOL      0.501498
     84 C28        -2.9420   -6.6720    0.0110 c3        1 MOL     -0.371877
     85 O15        -2.7470   -4.7610   -1.2120 oh        1 MOL     -0.646603
     86 H35        -4.0090   -3.0230    1.0020 hn        1 MOL      0.130292
     87 H36        -2.3990   -5.1360    2.1440 h1        1 MOL      0.132829
     88 H37        -1.2630   -5.5150   -0.0490 h1        1 MOL     -0.040420
     89 H38        -2.9560   -3.8470   -0.9980 ho        1 MOL      0.495441
     90 H39        -2.8370   -7.1890   -0.9420 hc        1 MOL      0.093911
     91 H40        -2.3980   -7.3060    0.7000 hc        1 MOL      0.093911
     92 H41        -4.0150   -6.6450    0.2120 hc        1 MOL      0.093911
     93 N9         -0.4210   -3.4800    2.0730 n         1 MOL     -0.581349
     94 C29         0.6640   -2.5000    2.1450 c3        1 MOL      0.105851
     95 C30         1.9970   -2.9720    1.5110 c         1 MOL      0.502020
     96 O16         2.4120   -4.0940    1.7060 o         1 MOL     -0.553918
     97 C31         0.9190   -2.0070    3.5660 c3        1 MOL      0.172901
     98 C32        -0.4020   -1.6830    4.3210 c3        1 MOL      0.144872
     99 C33         1.9780   -0.8880    3.6230 c3        1 MOL     -0.572372
    100 C34        -0.2440   -1.6210    5.9030 c3        1 MOL     -0.153794
    101 H42        -0.3130   -4.3920    2.4870 hn        1 MOL      0.302129
    102 H43         0.3340   -1.6320    1.5850 h1        1 MOL      0.056669
    103 H44         1.3080   -2.8380    4.1520 hc        1 MOL     -0.009596
    104 H45        -1.2170   -2.3730    4.1260 hc        1 MOL     -0.028403
    105 H46        -0.8440   -0.7630    3.9400 hc        1 MOL     -0.028403
    106 H47         1.5710    0.0940    3.3590 hc        1 MOL      0.126400
    107 H48         2.2760   -0.7020    4.6590 hc        1 MOL      0.126400
    108 H49         2.8840   -1.0720    3.0520 hc        1 MOL      0.126400
    109 H50        -1.1420   -1.2700    6.4070 hc        1 MOL      0.032864
    110 H51        -0.1200   -2.6180    6.3100 hc        1 MOL      0.032864
    111 H52         0.6190   -1.0430    6.2230 hc        1 MOL      0.032864
    112 N10         2.5570   -2.1610    0.6130 n         1 MOL     -0.274269
    113 C35         3.7600   -2.6230   -0.1520 c3        1 MOL      0.033576
    114 C36         5.0710   -2.2860    0.5800 c         1 MOL      0.414471
    115 O17         4.9150   -1.4520    1.4430 o         1 MOL     -0.375449
    116 C37         3.7900   -2.1960   -1.6550 c3        1 MOL      0.126215
    117 C38         2.6480   -2.4570   -2.6020 c3        1 MOL     -0.433823
    118 O18         4.0840   -0.8680   -1.7940 oh        1 MOL     -0.427036
    119 H53         2.3040   -1.1930    0.5150 hn        1 MOL      0.361032
    120 H54         3.9150   -3.6930   -0.2050 h1        1 MOL      0.057624
    121 H55         4.6650   -2.6740   -2.0960 h1        1 MOL      0.003688
    122 H56         3.4960   -0.5630   -2.4900 ho        1 MOL      0.377044
    123 H57         2.3930   -3.5210   -2.5530 hc        1 MOL      0.127774
    124 H58         1.7560   -1.8790   -2.3480 hc        1 MOL      0.127774
    125 H59         2.9300   -2.2610   -3.6320 hc        1 MOL      0.127774
    126 N11         6.2500   -2.8000    0.1420 n         1 MOL     -0.369383
    127 C39         7.5630   -2.2660    0.6350 c3        1 MOL     -0.165122
    128 C40         7.6640   -0.7640    0.4110 c         1 MOL      0.249776
    129 O19         7.9820   -0.0300    1.3430 o         1 MOL     -0.440136
    130 C41         8.6940   -2.9900   -0.1300 c3        1 MOL      0.271021
    131 C42         8.7370   -4.4800    0.1870 c3        1 MOL     -0.309411
    132 O20         8.4590   -2.8130   -1.5010 oh        1 MOL     -0.573999
    133 H60         6.2920   -3.4300   -0.6450 hn        1 MOL      0.290883
    134 H61         7.6530   -2.4880    1.6980 h1        1 MOL      0.167526
    135 H62         9.6880   -2.6510    0.1520 h1        1 MOL      0.048598
    136 H63         9.2760   -2.8670   -2.0010 ho        1 MOL      0.342349
    137 H64         9.1290   -4.6860    1.1910 hc        1 MOL      0.096130
    138 H65         7.8340   -5.0500   -0.0180 hc        1 MOL      0.096130
    139 H66         9.5090   -4.8680   -0.4840 hc        1 MOL      0.096130
    140 N12         7.3030   -0.2920   -0.7750 n         1 MOL     -0.091615
    141 C43         7.1780    1.1180   -1.1030 c3        1 MOL     -0.126864
    142 C44         6.2560    1.9000   -0.1550 c         1 MOL      0.313596
    143 O21         6.6590    2.9530    0.3820 o         1 MOL     -0.451084
    144 C45         6.8340    1.2500   -2.5540 c3        1 MOL     -0.291428
    145 C46         7.9070    0.8120   -3.5370 c3        1 MOL      0.175182
    146 C47         9.1410    1.6810   -3.7430 c3        1 MOL      0.176792
    147 C48        10.2880    1.1460   -4.5970 c3        1 MOL     -0.170496
    148 N13        10.9050    0.0210   -3.9570 n4        1 MOL     -0.285863
    149 H67         6.9130   -1.0090   -1.3600 hn        1 MOL      0.241169
    150 H68         8.1460    1.5870   -0.9170 h1        1 MOL      0.093251
    151 H69         6.4150    2.2290   -2.8110 hc        1 MOL      0.120572
    152 H70         6.0130    0.5540   -2.7200 hc        1 MOL      0.120572
    153 H71         7.3890    0.8020   -4.5000 hc        1 MOL     -0.075817
    154 H72         8.2330   -0.1750   -3.2130 hc        1 MOL     -0.075817
    155 H73         9.4670    1.8370   -2.7150 hc        1 MOL      0.002335
    156 H74         8.8870    2.6600   -4.1300 hc        1 MOL      0.002335
    157 H75        11.0320    1.9420   -4.6430 hx        1 MOL      0.136597
    158 H76         9.9340    0.9970   -5.6120 hx        1 MOL      0.136597
    159 H77        11.6350   -0.4510   -4.4600 hn        1 MOL      0.278903
    160 H78        11.2410    0.2580   -3.0420 hn        1 MOL      0.278903
    161 H79        10.2040   -0.7120   -3.8710 hn        1 MOL      0.278903
    162 N14         4.9840    1.4270    0.0260 n         1 MOL      0.124972
    163 C49         4.1030    2.2940    0.8060 c3        1 MOL     -0.350295
    164 C50         4.6390    2.5390    2.2710 c         1 MOL      0.512738
    165 O22         4.7410    3.7030    2.7440 o         1 MOL     -0.535862
    166 C51         2.6650    1.6340    0.8040 c3        1 MOL      0.227096
    167 C52         1.8720    1.7120   -0.5760 c3        1 MOL     -0.163818
    168 C53         0.5590    0.8670   -0.5220 c         1 MOL      0.734010
    169 O23        -0.5150    1.4560   -0.5720 o         1 MOL     -0.735275
    170 O24         0.5670   -0.3770   -0.6290 o         1 MOL     -0.735275
    171 H80         4.5900    0.7020   -0.5550 hn        1 MOL      0.018393
    172 H81         3.9780    3.2220    0.2530 h1        1 MOL      0.118122
    173 H82         2.1320    2.1440    1.5990 hc        1 MOL     -0.039515
    174 H83         2.7500    0.6130    1.1810 hc        1 MOL     -0.039515
    175 H84         2.5150    1.4280   -1.4070 hc        1 MOL      0.016511
    176 H85         1.5760    2.7480   -0.7410 hc        1 MOL      0.016511
    177 N15         5.0130    1.4510    3.0030 n         1 MOL     -0.230878
    178 C54         5.6620    1.4140    4.4290 c3        1 MOL     -0.152462
    179 H86         5.4810    2.3620    4.9350 h1        1 MOL      0.088477
    180 H87         5.2210    0.6040    5.0090 h1        1 MOL      0.088477
    181 H88         6.7360    1.2520    4.3360 h1        1 MOL      0.088477
    182 H89         4.9620    0.5320    2.5700 hn        1 MOL      0.210724
    183 Ca1        -1.9140   -0.5530   -1.4180 Ca        1 MOL      1.693640
    184 O25        -0.5940   -2.8540   -2.2570 oh        1 MOL     -0.846331
    185 H90        -0.8950   -3.7270   -2.5000 ho        1 MOL      0.389580
    186 H91         0.2190   -2.7290   -2.7480 ho        1 MOL      0.389580
    187 O26        -0.7660   -0.1590   -3.8260 oh        1 MOL     -0.846331
    188 H92        -1.2040    0.4360   -4.4330 ho        1 MOL      0.389580
    189 H93        -0.2330   -0.7250   -4.3900 ho        1 MOL      0.389580
@<TRIPOS>BOND
     1    1    2 1   
     2    1    4 1   
     3    1    5 1   
     4    1    6 1   
     5    2    3 2   
     6    2    7 1   
     7    7    8 1   
     8    7   15 1   
     9    8    9 1   
    10    8   11 1   
    11    8   16 1   
    12    9   10 2   
    13    9   19 1   
    14   11   12 1   
    15   11   17 1   
    16   11   18 1   
    17   12   13 1   
    18   12   14 1   
    19   19   20 1   
    20   19   28 1   
    21   20   21 1   
    22   20   23 1   
    23   20   29 1   
    24   21   22 2   
    25   21   41 1   
    26   23   24 1   
    27   23   30 1   
    28   23   31 1   
    29   24   25 1   
    30   24   32 1   
    31   24   33 1   
    32   25   26 1   
    33   25   34 1   
    34   25   35 1   
    35   26   27 1   
    36   26   36 1   
    37   26   37 1   
    38   27   38 1   
    39   27   39 1   
    40   27   40 1   
    41   41   42 1   
    42   41   49 1   
    43   42   43 1   
    44   42   45 1   
    45   42   50 1   
    46   43   44 2   
    47   43   53 1   
    48   45   46 1   
    49   45   51 1   
    50   45   52 1   
    51   46   47 1   
    52   46   48 1   
    53   53   54 1   
    54   53   57 1   
    55   54   55 1   
    56   54   58 1   
    57   54   59 1   
    58   55   56 2   
    59   55   60 1   
    60   60   61 1   
    61   60   68 1   
    62   61   62 1   
    63   61   64 1   
    64   61   69 1   
    65   62   63 2   
    66   62   72 1   
    67   64   65 1   
    68   64   70 1   
    69   64   71 1   
    70   65   66 1   
    71   65   67 1   
    72   72   73 1   
    73   72   76 1   
    74   73   74 1   
    75   73   77 1   
    76   73   78 1   
    77   74   75 2   
    78   74   79 1   
    79   79   80 1   
    80   79   86 1   
    81   80   81 1   
    82   80   83 1   
    83   80   87 1   
    84   81   82 2   
    85   81   93 1   
    86   83   84 1   
    87   83   85 1   
    88   83   88 1   
    89   84   90 1   
    90   84   91 1   
    91   84   92 1   
    92   85   89 1   
    93   93   94 1   
    94   93  101 1   
    95   94   95 1   
    96   94   97 1   
    97   94  102 1   
    98   95   96 2   
    99   95  112 1   
   100   97   98 1   
   101   97   99 1   
   102   97  103 1   
   103   98  100 1   
   104   98  104 1   
   105   98  105 1   
   106   99  106 1   
   107   99  107 1   
   108   99  108 1   
   109  100  109 1   
   110  100  110 1   
   111  100  111 1   
   112  112  113 1   
   113  112  119 1   
   114  113  114 1   
   115  113  116 1   
   116  113  120 1   
   117  114  115 2   
   118  114  126 1   
   119  116  117 1   
   120  116  118 1   
   121  116  121 1   
   122  117  123 1   
   123  117  124 1   
   124  117  125 1   
   125  118  122 1   
   126  126  127 1   
   127  126  133 1   
   128  127  128 1   
   129  127  130 1   
   130  127  134 1   
   131  128  129 2   
   132  128  140 1   
   133  130  131 1   
   134  130  132 1   
   135  130  135 1   
   136  131  137 1   
   137  131  138 1   
   138  131  139 1   
   139  132  136 1   
   140  140  141 1   
   141  140  149 1   
   142  141  142 1   
   143  141  144 1   
   144  141  150 1   
   145  142  143 2   
   146  142  162 1   
   147  144  145 1   
   148  144  151 1   
   149  144  152 1   
   150  145  146 1   
   151  145  153 1   
   152  145  154 1   
   153  146  147 1   
   154  146  155 1   
   155  146  156 1   
   156  147  148 1   
   157  147  157 1   
   158  147  158 1   
   159  148  159 1   
   160  148  160 1   
   161  148  161 1   
   162  162  163 1   
   163  162  171 1   
   164  163  164 1   
   165  163  166 1   
   166  163  172 1   
   167  164  165 2   
   168  164  177 1   
   169  166  167 1   
   170  166  173 1   
   171  166  174 1   
   172  167  168 1   
   173  167  175 1   
   174  167  176 1   
   175  168  169 1   
   176  168  170 1   
   177  177  178 1   
   178  177  182 1   
   179  178  179 1   
   180  178  180 1   
   181  178  181 1   
   182  184  185 1   
   183  184  186 1   
   184  187  188 1   
   185  187  189 1   
@<TRIPOS>SUBSTRUCTURE
     1 MOL         1 TEMP              0 ****  ****    0 ROOT
