@<TRIPOS>MOLECULE
MOL
  186   183     1     0     0
SMALL
resp


@<TRIPOS>ATOM
      1 C1          0.3210   -1.0320    6.3820 c3        1 MOL     -0.278214
      2 C2          0.6430   -1.2970    4.8750 c         1 MOL      0.779986
      3 O1         -0.1990   -1.7640    4.1120 o         1 MOL     -0.584918
      4 H1          0.4500    0.0290    6.5990 hc        1 MOL      0.057289
      5 H2         -0.7090   -1.3220    6.5890 hc        1 MOL      0.057289
      6 H3          0.9960   -1.6160    7.0070 hc        1 MOL      0.057289
      7 N1          1.9040   -1.0380    4.4690 n         1 MOL     -0.754226
      8 C3          2.4140   -1.3420    3.1470 c3        1 MOL      0.417022
      9 C4          2.5320   -2.8430    2.8520 c         1 MOL      0.534660
     10 O2          3.0270   -3.5220    3.7120 o         1 MOL     -0.590119
     11 C5          3.7640   -0.7460    3.1060 c3        1 MOL     -0.109314
     12 C6          4.4220   -0.5440    1.6980 c         1 MOL      0.717097
     13 O3          5.5370   -0.0850    1.5260 o         1 MOL     -0.597250
     14 O4          3.8060   -1.0890    0.7670 o         1 MOL     -0.597250
     15 H4          2.5080   -0.5370    5.0990 hn        1 MOL      0.334014
     16 H5          1.7430   -0.8470    2.4450 h1        1 MOL     -0.073185
     17 H6          4.4850   -1.1830    3.8060 hc        1 MOL     -0.016756
     18 H7          3.5950    0.3000    3.3830 hc        1 MOL     -0.016756
     19 N2          2.1300   -3.3240    1.6830 n         1 MOL     -0.198691
     20 C7          2.1770   -4.8010    1.4220 c3        1 MOL     -0.098345
     21 C8          3.2890   -5.1920    0.3670 c         1 MOL      0.522535
     22 O5          4.0360   -6.1400    0.5050 o         1 MOL     -0.573210
     23 C9          0.7630   -5.2050    0.9640 c3        1 MOL      0.225972
     24 C10        -0.1550   -5.3730    2.1460 c3        1 MOL      0.180510
     25 C11         0.7060   -6.4070    0.0140 c3        1 MOL     -0.183235
     26 C12        -1.5880   -5.6730    1.8160 c3        1 MOL     -0.382243
     27 H8          1.8720   -2.7430    0.9080 hn        1 MOL     -0.019799
     28 H9          2.4720   -5.3210    2.3270 h1        1 MOL      0.072299
     29 H10         0.2630   -4.3910    0.4390 hc        1 MOL      0.014409
     30 H11        -0.2050   -4.3980    2.6280 hc        1 MOL     -0.059786
     31 H12         0.3090   -6.0780    2.8410 hc        1 MOL     -0.059786
     32 H13         1.2820   -6.0050   -0.8150 hc        1 MOL      0.024934
     33 H14         1.2180   -7.2530    0.4810 hc        1 MOL      0.024934
     34 H15        -0.2990   -6.7350   -0.2720 hc        1 MOL      0.024934
     35 H16        -1.9160   -4.9160    1.1140 hc        1 MOL      0.087625
     36 H17        -1.6980   -6.6350    1.3050 hc        1 MOL      0.087625
     37 H18        -2.1470   -5.6090    2.7470 hc        1 MOL      0.087625
     38 N3          3.4670   -4.2520   -0.6280 n         1 MOL     -0.186283
     39 C13         4.4280   -4.4440   -1.6530 c3        1 MOL     -0.197476
     40 C14         5.7820   -3.7290   -1.5420 c         1 MOL      0.465868
     41 O6          6.6830   -4.0670   -2.3860 o         1 MOL     -0.526192
     42 C15         3.7370   -4.3130   -3.0180 c3        1 MOL     -0.093027
     43 C16         3.2360   -2.8870   -3.2420 c         1 MOL      0.731413
     44 O7          3.2640   -2.0530   -2.2890 o         1 MOL     -0.697917
     45 O8          2.6050   -2.6250   -4.2880 o         1 MOL     -0.697917
     46 H19         2.8890   -3.4300   -0.5470 hn        1 MOL      0.198445
     47 H20         4.6730   -5.5130   -1.6620 h1        1 MOL      0.122457
     48 H21         2.9500   -5.0530   -3.1550 hc        1 MOL      0.039243
     49 H22         4.4300   -4.6080   -3.8120 hc        1 MOL      0.039243
     50 N4          6.0150   -2.8650   -0.5160 n         1 MOL     -0.200592
     51 C17         7.3270   -2.2980   -0.1540 c3        1 MOL     -0.160140
     52 C18         7.7550   -1.0820   -0.9410 c         1 MOL      0.473375
     53 O9          8.7360   -1.0900   -1.6950 o         1 MOL     -0.572431
     54 H23         5.2760   -2.6480    0.1410 hn        1 MOL      0.178194
     55 H24         8.1210   -3.0300   -0.3310 h1        1 MOL      0.089310
     56 H25         7.4000   -2.0580    0.9110 h1        1 MOL      0.089310
     57 N5          6.9810    0.0190   -0.9100 n         1 MOL     -0.029575
     58 C19         7.2840    1.3220   -1.5030 c3        1 MOL     -0.017416
     59 C20         7.2900    2.5100   -0.4480 c         1 MOL      0.438190
     60 O10         7.5490    3.5870   -0.8030 o         1 MOL     -0.525216
     61 C21         6.3780    1.6890   -2.6340 c3        1 MOL      0.079744
     62 C22         4.9140    1.4730   -2.4020 c         1 MOL      0.666285
     63 O11         4.1440    1.1450   -3.3430 o         1 MOL     -0.711594
     64 O12         4.3710    1.5940   -1.3010 o         1 MOL     -0.711594
     65 H26         6.2570   -0.0160   -0.2100 hn        1 MOL     -0.162598
     66 H27         8.2860    1.2470   -1.9310 h1        1 MOL      0.050476
     67 H28         6.6430    1.1500   -3.5430 hc        1 MOL     -0.015158
     68 H29         6.4930    2.7370   -2.9330 hc        1 MOL     -0.015158
     69 N6          6.9010    2.3090    0.8090 n         1 MOL     -0.359229
     70 C23         6.7300    3.4090    1.7450 c3        1 MOL     -0.016709
     71 C24         5.4040    4.1340    1.7380 c         1 MOL      0.449160
     72 O13         5.2950    5.1620    2.3770 o         1 MOL     -0.590704
     73 H30         6.5920    1.3890    1.0720 hn        1 MOL      0.255954
     74 H31         7.5240    4.1430    1.6110 h1        1 MOL      0.062663
     75 H32         6.9030    3.0220    2.7520 h1        1 MOL      0.062663
     76 N7          4.3610    3.6220    1.0270 n         1 MOL     -0.201784
     77 C25         3.0560    4.2000    1.1220 c3        1 MOL      0.181466
     78 C26         1.9460    3.1470    1.1550 c         1 MOL      0.412604
     79 O14         2.1820    1.9820    0.8490 o         1 MOL     -0.473609
     80 C27         2.6860    5.2940    0.0410 c3        1 MOL     -0.179173
     81 C28         3.7880    6.4000   -0.0850 c3        1 MOL     -0.099708
     82 C29         3.3830    7.4880   -1.0120 c         1 MOL      0.686871
     83 N8          4.1640    8.5270   -1.0830 n         1 MOL     -0.830726
     84 O15         2.4510    7.3940   -1.7810 o         1 MOL     -0.590238
     85 H33         4.4830    2.6990    0.6210 hn        1 MOL      0.165729
     86 H34         2.9620    4.7020    2.0790 h1        1 MOL      0.004398
     87 H35         1.7450    5.7660    0.3170 hc        1 MOL      0.059075
     88 H36         2.5030    4.8050   -0.9120 hc        1 MOL      0.059075
     89 H37         4.7050    5.9790   -0.4900 hc        1 MOL      0.064589
     90 H38         3.9640    6.8770    0.8780 hc        1 MOL      0.064589
     91 H39         5.0260    8.5990   -0.5620 hn        1 MOL      0.355764
     92 H40         3.8840    9.1970   -1.7800 hn        1 MOL      0.355764
     93 N9          0.7350    3.6490    1.4410 n         1 MOL     -0.542981
     94 C30        -0.4650    2.8320    1.7540 c3        1 MOL      0.006763
     95 C31        -1.5900    3.1700    0.7800 c         1 MOL      0.496517
     96 O16        -2.3420    4.1680    0.9840 o         1 MOL     -0.589608
     97 C32        -0.8390    3.0150    3.2350 c3        1 MOL      0.155109
     98 C33        -2.1770    2.2920    3.4930 c3        1 MOL     -0.246058
     99 C34         0.2400    2.3440    4.0810 c3        1 MOL     -0.246058
    100 H41         0.6760    4.6520    1.4930 hn        1 MOL      0.337823
    101 H42        -0.3190    1.7530    1.6880 h1        1 MOL      0.146878
    102 H43        -0.9310    4.0920    3.3880 hc        1 MOL     -0.010414
    103 H44        -3.0050    2.6720    2.9020 hc        1 MOL      0.053979
    104 H45        -2.0180    1.2440    3.2360 hc        1 MOL      0.053979
    105 H46        -2.5370    2.4930    4.5090 hc        1 MOL      0.053979
    106 H47         1.1850    2.8870    4.0480 hc        1 MOL      0.053979
    107 H48         0.0210    2.4280    5.1460 hc        1 MOL      0.053979
    108 H49         0.3410    1.2940    3.8170 hc        1 MOL      0.053979
    109 N10        -1.8320    2.3140   -0.1940 n         1 MOL     -0.217524
    110 C35        -2.9190    2.4300   -1.1720 c3        1 MOL     -0.016682
    111 C36        -4.2350    1.7380   -0.5320 c         1 MOL      0.369259
    112 O17        -4.1860    1.2110    0.6040 o         1 MOL     -0.383228
    113 C37        -2.4840    1.7540   -2.4500 c3        1 MOL     -0.290641
    114 C38        -3.3560    1.9480   -3.6710 c         1 MOL      0.637684
    115 N11        -3.9990    3.0570   -3.8690 n         1 MOL     -0.741338
    116 O18        -3.3530    1.0890   -4.5100 o         1 MOL     -0.490867
    117 H50        -1.3510    1.4330   -0.1180 hn        1 MOL      0.193652
    118 H51        -3.0630    3.5040   -1.2490 h1        1 MOL      0.060300
    119 H52        -2.3470    0.6790   -2.3000 hc        1 MOL      0.126262
    120 H53        -1.4910    2.0600   -2.7670 hc        1 MOL      0.126262
    121 H54        -3.8450    3.8280   -3.2330 hn        1 MOL      0.340459
    122 H55        -4.3800    3.2780   -4.7830 hn        1 MOL      0.340459
    123 N12        -5.3950    1.9510   -1.1050 n         1 MOL     -0.284773
    124 C39        -6.6220    1.3920   -0.6180 c3        1 MOL      0.083192
    125 C40        -6.7230   -0.1470   -0.4590 c         1 MOL      0.647205
    126 O19        -7.1240   -0.6290    0.6170 o         1 MOL     -0.574318
    127 C41        -7.7950    1.9590   -1.4400 c3        1 MOL     -0.012622
    128 C42        -9.2040    1.9830   -0.7940 ca        1 MOL     -0.102443
    129 C43        -9.6840    3.0780   -0.0700 ca        1 MOL     -0.111872
    130 C44        -9.8980    0.7700   -0.7910 ca        1 MOL     -0.111872
    131 C45       -10.9880    3.0500    0.4460 ca        1 MOL     -0.193461
    132 C46       -11.1340    0.7530   -0.2410 ca        1 MOL     -0.193461
    133 C47       -11.7560    1.9120    0.2320 ca        1 MOL      0.282630
    134 O20       -13.1140    1.9620    0.5900 oh        1 MOL     -0.552826
    135 H56        -5.4010    2.4890   -1.9570 hn        1 MOL      0.170899
    136 H57        -6.6800    1.7260    0.4150 h1        1 MOL      0.057471
    137 H58        -7.8040    1.4720   -2.4180 hc        1 MOL      0.024312
    138 H59        -7.4710    2.9680   -1.6760 hc        1 MOL      0.024312
    139 H60        -9.0320    3.9360   -0.0250 ha        1 MOL      0.118524
    140 H61        -9.4960   -0.0920   -1.3010 ha        1 MOL      0.118524
    141 H62       -11.3620    3.8990    1.0120 ha        1 MOL      0.121193
    142 H63       -11.6840   -0.1790   -0.2350 ha        1 MOL      0.121193
    143 H64       -13.6240    1.1480    0.5160 ho        1 MOL      0.387347
    144 N13        -6.1690   -0.9440   -1.4020 n         1 MOL     -0.508618
    145 C48        -6.0340   -2.4090   -1.3230 c3        1 MOL      0.097411
    146 C49        -5.2020   -2.7980   -0.0660 c         1 MOL      0.367296
    147 O21        -5.4310   -3.9020    0.4990 o         1 MOL     -0.544823
    148 C50        -5.4590   -2.9370   -2.6800 c3        1 MOL     -0.139085
    149 C51        -4.0530   -2.5190   -3.0760 c3        1 MOL     -0.094284
    150 C52        -3.7820   -3.0720   -4.3860 c         1 MOL      0.746572
    151 O22        -3.2580   -4.1930   -4.5500 o         1 MOL     -0.732279
    152 O23        -3.9140   -2.3690   -5.3990 o         1 MOL     -0.732279
    153 H65        -5.8010   -0.4740   -2.2180 hn        1 MOL      0.276160
    154 H66        -7.0340   -2.8200   -1.2160 h1        1 MOL      0.052878
    155 H67        -6.1600   -2.6060   -3.4400 hc        1 MOL      0.039319
    156 H68        -5.4960   -4.0280   -2.6810 hc        1 MOL      0.039319
    157 H69        -3.3070   -2.8040   -2.3380 hc        1 MOL     -0.009298
    158 H70        -4.0020   -1.4270   -3.1250 hc        1 MOL     -0.009298
    159 N14        -4.3120   -1.9280    0.3630 n         1 MOL      0.021150
    160 C53        -3.5500   -2.3190    1.5660 c3        1 MOL     -0.214256
    161 C54        -4.2650   -1.8670    2.8460 c         1 MOL      0.441138
    162 O24        -4.1030   -2.5810    3.8180 o         1 MOL     -0.529953
    163 C55        -2.0920   -1.8300    1.5610 c3        1 MOL      0.162041
    164 C56        -1.7040   -1.4490    0.1180 c3        1 MOL      0.006357
    165 C57        -0.3110   -1.0550   -0.1080 c         1 MOL      0.490122
    166 O25         0.5180   -1.8090   -0.6130 o         1 MOL     -0.636493
    167 O26         0.0450    0.0930    0.3010 o         1 MOL     -0.636493
    168 H71        -4.3040   -0.9430    0.1260 hn        1 MOL      0.080035
    169 H72        -3.5770   -3.4050    1.6590 h1        1 MOL      0.149421
    170 H73        -1.3120   -2.4510    2.0100 hc        1 MOL      0.022026
    171 H74        -2.0470   -0.8550    2.0660 hc        1 MOL      0.022026
    172 H75        -2.3650   -0.6610   -0.2430 hc        1 MOL      0.026932
    173 H76        -1.8590   -2.2770   -0.5860 hc        1 MOL      0.026932
    174 N15        -5.0020   -0.6950    2.8890 n         1 MOL     -0.056591
    175 C58        -5.7090   -0.2480    4.0490 c3        1 MOL     -0.353419
    176 H77        -5.5050    0.8100    4.2130 h1        1 MOL      0.112094
    177 H78        -6.7800   -0.3930    3.9020 h1        1 MOL      0.112094
    178 H79        -5.3810   -0.8190    4.9180 h1        1 MOL      0.112094
    179 H80        -4.9620   -0.1660    2.0300 hn        1 MOL      0.098450
    180 Ca1         2.3550    0.0450   -0.9500 Ca        1 MOL      1.718437
    181 O27         1.5590    2.3450   -2.1290 oh        1 MOL     -0.869477
    182 H81         2.4050    2.6660   -2.4400 ho        1 MOL      0.414012
    183 H82         0.9500    2.5780   -2.8250 ho        1 MOL      0.414012
    184 O28         1.3670   -0.3490   -3.4860 oh        1 MOL     -0.869477
    185 H83         0.6960   -0.3270   -4.1700 ho        1 MOL      0.414012
    186 H84         1.8460   -1.1600   -3.6480 ho        1 MOL      0.414012
@<TRIPOS>BOND
     1    1    2 1   
     2    1    4 1   
     3    1    5 1   
     4    1    6 1   
     5    2    3 2   
     6    2    7 1   
     7    7    8 1   
     8    7   15 1   
     9    8    9 1   
    10    8   11 1   
    11    8   16 1   
    12    9   10 2   
    13    9   19 1   
    14   11   12 1   
    15   11   17 1   
    16   11   18 1   
    17   12   13 1   
    18   12   14 1   
    19   19   20 1   
    20   19   27 1   
    21   20   21 1   
    22   20   23 1   
    23   20   28 1   
    24   21   22 2   
    25   21   38 1   
    26   23   24 1   
    27   23   25 1   
    28   23   29 1   
    29   24   26 1   
    30   24   30 1   
    31   24   31 1   
    32   25   32 1   
    33   25   33 1   
    34   25   34 1   
    35   26   35 1   
    36   26   36 1   
    37   26   37 1   
    38   38   39 1   
    39   38   46 1   
    40   39   40 1   
    41   39   42 1   
    42   39   47 1   
    43   40   41 2   
    44   40   50 1   
    45   42   43 1   
    46   42   48 1   
    47   42   49 1   
    48   43   44 1   
    49   43   45 1   
    50   50   51 1   
    51   50   54 1   
    52   51   52 1   
    53   51   55 1   
    54   51   56 1   
    55   52   53 2   
    56   52   57 1   
    57   57   58 1   
    58   57   65 1   
    59   58   59 1   
    60   58   61 1   
    61   58   66 1   
    62   59   60 2   
    63   59   69 1   
    64   61   62 1   
    65   61   67 1   
    66   61   68 1   
    67   62   63 1   
    68   62   64 1   
    69   69   70 1   
    70   69   73 1   
    71   70   71 1   
    72   70   74 1   
    73   70   75 1   
    74   71   72 2   
    75   71   76 1   
    76   76   77 1   
    77   76   85 1   
    78   77   78 1   
    79   77   80 1   
    80   77   86 1   
    81   78   79 2   
    82   78   93 1   
    83   80   81 1   
    84   80   87 1   
    85   80   88 1   
    86   81   82 1   
    87   81   89 1   
    88   81   90 1   
    89   82   83 1   
    90   82   84 2   
    91   83   91 1   
    92   83   92 1   
    93   93   94 1   
    94   93  100 1   
    95   94   95 1   
    96   94   97 1   
    97   94  101 1   
    98   95   96 2   
    99   95  109 1   
   100   97   98 1   
   101   97   99 1   
   102   97  102 1   
   103   98  103 1   
   104   98  104 1   
   105   98  105 1   
   106   99  106 1   
   107   99  107 1   
   108   99  108 1   
   109  109  110 1   
   110  109  117 1   
   111  110  111 1   
   112  110  113 1   
   113  110  118 1   
   114  111  112 2   
   115  111  123 1   
   116  113  114 1   
   117  113  119 1   
   118  113  120 1   
   119  114  115 1   
   120  114  116 2   
   121  115  121 1   
   122  115  122 1   
   123  123  124 1   
   124  123  135 1   
   125  124  125 1   
   126  124  127 1   
   127  124  136 1   
   128  125  126 2   
   129  125  144 1   
   130  127  128 1   
   131  127  137 1   
   132  127  138 1   
   133  128  129 ar  
   134  128  130 ar  
   135  129  131 ar  
   136  129  139 1   
   137  130  132 ar  
   138  130  140 1   
   139  131  133 ar  
   140  131  141 1   
   141  132  133 ar  
   142  132  142 1   
   143  133  134 1   
   144  134  143 1   
   145  144  145 1   
   146  144  153 1   
   147  145  146 1   
   148  145  148 1   
   149  145  154 1   
   150  146  147 2   
   151  146  159 1   
   152  148  149 1   
   153  148  155 1   
   154  148  156 1   
   155  149  150 1   
   156  149  157 1   
   157  149  158 1   
   158  150  151 1   
   159  150  152 1   
   160  159  160 1   
   161  159  168 1   
   162  160  161 1   
   163  160  163 1   
   164  160  169 1   
   165  161  162 2   
   166  161  174 1   
   167  163  164 1   
   168  163  170 1   
   169  163  171 1   
   170  164  165 1   
   171  164  172 1   
   172  164  173 1   
   173  165  166 1   
   174  165  167 1   
   175  174  175 1   
   176  174  179 1   
   177  175  176 1   
   178  175  177 1   
   179  175  178 1   
   180  181  182 1   
   181  181  183 1   
   182  184  185 1   
   183  184  186 1   
@<TRIPOS>SUBSTRUCTURE
     1 MOL         1 TEMP              0 ****  ****    0 ROOT
