@<TRIPOS>MOLECULE
MOL
  189   185     1     0     0
SMALL
resp


@<TRIPOS>ATOM
      1 C1          1.6930   -4.7470    5.9900 c3        1 MOL     -0.399523
      2 C2          1.7750   -4.0740    4.6120 c         1 MOL      0.749749
      3 O1          1.5410   -2.8630    4.4470 o         1 MOL     -0.609255
      4 H1          2.6800   -5.1070    6.2770 hc        1 MOL      0.105962
      5 H2          1.3410   -4.0250    6.7270 hc        1 MOL      0.105962
      6 H3          1.0000   -5.5870    5.9440 hc        1 MOL      0.105962
      7 N1          2.0800   -4.7940    3.4970 n         1 MOL     -0.586368
      8 C3          2.3490   -4.2190    2.1730 c3        1 MOL      0.111182
      9 C4          2.0450   -5.2840    1.1100 c         1 MOL      0.602003
     10 O2          2.4610   -6.4460    1.1870 o         1 MOL     -0.601087
     11 C5          3.8420   -3.7560    2.0670 c3        1 MOL     -0.151832
     12 C6          4.2610   -2.8770    0.9340 c         1 MOL      0.793756
     13 O3          5.4950   -2.5420    0.9080 o         1 MOL     -0.701462
     14 O4          3.3740   -2.4920    0.2040 o         1 MOL     -0.701462
     15 H4          2.3170   -5.7620    3.6650 hn        1 MOL      0.297402
     16 H5          1.7930   -3.3120    1.9440 h1        1 MOL      0.067816
     17 H6          4.4670   -4.6460    2.0200 hc        1 MOL      0.018832
     18 H7          4.1190   -3.3230    3.0310 hc        1 MOL      0.018832
     19 N2          1.2930   -4.8810    0.1290 n         1 MOL     -0.265730
     20 C7          0.9680   -5.7060   -1.0810 c3        1 MOL     -0.279495
     21 C8          1.4600   -5.0930   -2.4140 c         1 MOL      0.581295
     22 O5          1.1060   -5.6280   -3.4320 o         1 MOL     -0.580101
     23 C9         -0.5380   -6.0180   -1.1060 c3        1 MOL      0.277702
     24 C10        -1.3990   -4.7300   -1.1050 c3        1 MOL     -0.006413
     25 C11        -0.7710   -6.9700    0.1360 c3        1 MOL     -0.148182
     26 C12        -2.7950   -4.8160   -0.6830 c3        1 MOL     -0.311627
     27 H8          1.1100   -3.8900    0.1150 hn        1 MOL      0.118024
     28 H9          1.2850   -6.7420   -0.9690 h1        1 MOL      0.125280
     29 H10        -0.8180   -6.6420   -1.9500 hc        1 MOL     -0.033063
     30 H11        -1.4060   -4.3580   -2.1290 hc        1 MOL      0.054549
     31 H12        -0.9190   -3.9590   -0.5130 hc        1 MOL      0.054549
     32 H13        -0.7670   -6.3880    1.0650 hc        1 MOL      0.018789
     33 H14        -1.6400   -7.6250    0.0580 hc        1 MOL      0.018789
     34 H15         0.0610   -7.6090    0.4400 hc        1 MOL      0.018789
     35 H16        -3.1440   -3.8750   -1.1120 hc        1 MOL      0.065471
     36 H17        -3.2840   -5.7200   -1.0540 hc        1 MOL      0.065471
     37 H18        -2.8310   -4.7470    0.4010 hc        1 MOL      0.065471
     38 N3          2.3190   -4.0950   -2.4950 n         1 MOL     -0.388598
     39 C13         2.9150   -3.5710   -3.6960 c3        1 MOL      0.073258
     40 C14         4.4280   -3.1950   -3.5720 c         1 MOL      0.425107
     41 O6          5.0420   -3.2290   -4.6150 o         1 MOL     -0.553544
     42 C15         2.1170   -2.4320   -4.2650 c3        1 MOL     -0.256918
     43 C16         1.8270   -1.2000   -3.3960 c         1 MOL      0.784530
     44 O7          2.3430   -1.1360   -2.2590 o         1 MOL     -0.731901
     45 O8          1.0090   -0.3450   -3.7950 o         1 MOL     -0.731901
     46 H19         2.6660   -3.8050   -1.5910 hn        1 MOL      0.278948
     47 H20         2.8580   -4.3660   -4.4460 h1        1 MOL      0.065212
     48 H21         1.1560   -2.8050   -4.6250 hc        1 MOL      0.064726
     49 H22         2.6750   -1.9820   -5.0910 hc        1 MOL      0.064726
     50 N4          4.8950   -2.8330   -2.3870 n         1 MOL     -0.184586
     51 C17         6.3360   -2.6550   -2.1970 c3        1 MOL     -0.118609
     52 C18         6.8820   -1.2170   -2.2320 c         1 MOL      0.486994
     53 O9          8.0910   -1.0510   -2.0290 o         1 MOL     -0.597573
     54 H23         4.3020   -2.8190   -1.5770 hn        1 MOL      0.106061
     55 H24         6.8380   -3.2520   -2.9550 h1        1 MOL      0.090859
     56 H25         6.6070   -3.2250   -1.3120 h1        1 MOL      0.090859
     57 N5          6.0430   -0.2100   -2.3940 n         1 MOL     -0.269325
     58 C19         6.4090    1.2200   -2.6880 c3        1 MOL      0.057092
     59 C20         6.8840    2.0160   -1.4760 c         1 MOL      0.466989
     60 O10         7.4910    3.0590   -1.6240 o         1 MOL     -0.550726
     61 C21         5.1780    1.9450   -3.2380 c3        1 MOL     -0.483953
     62 C22         3.9280    2.0690   -2.3690 c         1 MOL      0.874092
     63 O11         3.8550    1.4770   -1.2430 o         1 MOL     -0.694011
     64 O12         3.0120    2.7430   -2.8160 o         1 MOL     -0.694011
     65 H26         5.0620   -0.4290   -2.5160 hn        1 MOL      0.236200
     66 H27         7.2680    1.2710   -3.3600 h1        1 MOL      0.080743
     67 H28         4.8140    1.4330   -4.1270 hc        1 MOL      0.125503
     68 H29         5.4990    2.9560   -3.5070 hc        1 MOL      0.125503
     69 N6          6.6190    1.5320   -0.2300 n         1 MOL     -0.255279
     70 C23         7.0800    2.1130    0.9840 c3        1 MOL     -0.032325
     71 C24         6.2300    3.3100    1.4210 c         1 MOL      0.409228
     72 O13         6.7510    4.2280    2.1450 o         1 MOL     -0.574106
     73 H30         6.0300    0.7150   -0.1280 hn        1 MOL      0.255601
     74 H31         8.0970    2.5000    0.9370 h1        1 MOL      0.070458
     75 H32         7.1710    1.3750    1.7750 h1        1 MOL      0.070458
     76 N7          4.9100    3.3240    1.0800 n         1 MOL     -0.154536
     77 C25         3.8040    4.1430    1.4820 c3        1 MOL     -0.064510
     78 C26         2.5310    3.2390    1.8490 c         1 MOL      0.512363
     79 O14         2.5260    1.9560    1.7530 o         1 MOL     -0.550228
     80 C27         3.4920    5.2400    0.4150 c3        1 MOL      0.063691
     81 C28         4.7000    6.0890    0.2190 c3        1 MOL     -0.146748
     82 C29         4.3460    7.3890   -0.4840 c         1 MOL      0.548960
     83 N8          3.9180    7.3560   -1.7580 n         1 MOL     -0.757014
     84 O15         4.3100    8.4540    0.1700 o         1 MOL     -0.571589
     85 H33         4.5670    2.5680    0.5130 hn        1 MOL      0.149757
     86 H34         4.0730    4.6080    2.4300 h1        1 MOL      0.070034
     87 H35         2.6750    5.8700    0.7560 hc        1 MOL      0.018958
     88 H36         3.1780    4.7960   -0.5220 hc        1 MOL      0.018958
     89 H37         5.3680    5.4980   -0.4120 hc        1 MOL      0.070680
     90 H38         4.9710    6.4520    1.2080 hc        1 MOL      0.070680
     91 H39         3.8600    6.5020   -2.2910 hn        1 MOL      0.359108
     92 H40         3.7070    8.2860   -2.0850 hn        1 MOL      0.359108
     93 N9          1.4330    3.8690    2.2150 n         1 MOL     -0.492818
     94 C30         0.2030    3.1720    2.5480 c3        1 MOL      0.390860
     95 C31        -0.9130    3.5340    1.5970 c         1 MOL      0.162749
     96 O16        -1.2730    4.7280    1.4270 o         1 MOL     -0.576323
     97 C32        -0.2810    3.3780    4.0360 c3        1 MOL      0.284669
     98 C33        -1.5920    2.6930    4.4140 c3        1 MOL     -0.327893
     99 C34         0.8870    2.8830    4.8840 c3        1 MOL     -0.327893
    100 H41         1.4830    4.8670    2.4040 hn        1 MOL      0.285324
    101 H42         0.2580    2.0860    2.5000 h1        1 MOL     -0.093953
    102 H43        -0.3700    4.4590    4.1390 hc        1 MOL     -0.059224
    103 H44        -1.8130    2.8640    5.4650 hc        1 MOL      0.067433
    104 H45        -2.4200    3.0360    3.7990 hc        1 MOL      0.067433
    105 H46        -1.5220    1.6160    4.3420 hc        1 MOL      0.067433
    106 H47         0.9920    1.8140    4.7160 hc        1 MOL      0.067433
    107 H48         1.7470    3.4710    4.5670 hc        1 MOL      0.067433
    108 H49         0.6180    3.0170    5.9270 hc        1 MOL      0.067433
    109 N10        -1.5590    2.5730    0.9860 n         1 MOL      0.009864
    110 C35        -2.7150    2.7350    0.0580 c3        1 MOL      0.261251
    111 C36        -4.0590    2.3000    0.7390 c         1 MOL      0.126558
    112 O17        -4.0550    1.7640    1.8150 o         1 MOL     -0.304512
    113 C37        -2.4490    2.0290   -1.3010 c3        1 MOL     -0.431941
    114 C38        -3.5660    2.2880   -2.3130 c         1 MOL      0.778530
    115 N11        -3.7980    3.5070   -2.7660 n         1 MOL     -0.847569
    116 O18        -4.2200    1.3270   -2.7500 o         1 MOL     -0.582667
    117 H50        -1.1320    1.6700    1.1030 hn        1 MOL      0.114530
    118 H51        -2.8450    3.7810   -0.2470 h1        1 MOL     -0.012779
    119 H52        -2.2790    0.9560   -1.2290 hc        1 MOL      0.148709
    120 H53        -1.4860    2.3470   -1.6880 hc        1 MOL      0.148709
    121 H54        -3.2580    4.3010   -2.4400 hn        1 MOL      0.374318
    122 H55        -4.5030    3.5760   -3.4820 hn        1 MOL      0.374318
    123 N12        -5.1910    2.6680    0.1160 n         1 MOL     -0.206680
    124 C39        -6.5260    2.3620    0.6580 c3        1 MOL      0.298600
    125 C40        -6.8130    0.8650    0.8040 c         1 MOL      0.329064
    126 O19        -7.6080    0.5230    1.6710 o         1 MOL     -0.557010
    127 C41        -7.6210    3.0040   -0.1040 c3        1 MOL     -0.101671
    128 C42        -7.5220    2.7850   -1.6150 ca        1 MOL      0.144976
    129 C43        -7.1670    3.8420   -2.4800 ca        1 MOL     -0.202219
    130 C44        -7.8070    1.5460   -2.2050 ca        1 MOL     -0.202219
    131 C45        -7.1180    3.7080   -3.8600 ca        1 MOL     -0.285614
    132 C46        -7.9280    1.3950   -3.5870 ca        1 MOL     -0.285614
    133 C47        -7.5350    2.4630   -4.4260 ca        1 MOL      0.383036
    134 O20        -7.6040    2.3820   -5.7440 oh        1 MOL     -0.548743
    135 H56        -5.1890    3.3160   -0.6560 hn        1 MOL      0.152712
    136 H57        -6.5430    2.7630    1.6750 h1        1 MOL     -0.011844
    137 H58        -7.4580    4.0650    0.0820 hc        1 MOL      0.006795
    138 H59        -8.5940    2.7150    0.2990 hc        1 MOL      0.006795
    139 H60        -6.9120    4.8050   -2.0780 ha        1 MOL      0.116125
    140 H61        -8.1240    0.6940   -1.6300 ha        1 MOL      0.116125
    141 H62        -6.8750    4.5410   -4.5060 ha        1 MOL      0.139032
    142 H63        -8.1840    0.4010   -3.9310 ha        1 MOL      0.139032
    143 H64        -8.1110    1.5880   -5.9200 ho        1 MOL      0.411878
    144 N13        -6.0360    0.0200    0.0380 n         1 MOL      0.230035
    145 C48        -6.0510   -1.4750    0.2510 c3        1 MOL     -0.192936
    146 C49        -5.3240   -1.8690    1.5100 c         1 MOL      0.460347
    147 O21        -5.6470   -2.9400    2.0360 o         1 MOL     -0.518161
    148 C50        -5.3790   -2.1450   -0.9480 c3        1 MOL      0.363818
    149 C51        -6.2110   -1.8470   -2.2800 c3        1 MOL     -0.560134
    150 C52        -7.6270   -2.3860   -2.2180 c         1 MOL      0.784050
    151 O22        -7.9740   -3.5470   -2.4900 o         1 MOL     -0.726851
    152 O23        -8.5540   -1.6560   -1.7840 o         1 MOL     -0.726851
    153 H65        -5.3850    0.3770   -0.6440 hn        1 MOL     -0.026584
    154 H66        -7.0720   -1.8470    0.3060 h1        1 MOL      0.125520
    155 H67        -5.3190   -3.2260   -0.8230 hc        1 MOL     -0.034785
    156 H68        -4.3760   -1.7630   -1.1360 hc        1 MOL     -0.034785
    157 H69        -5.6800   -2.2390   -3.1530 hc        1 MOL      0.131136
    158 H70        -6.3070   -0.7730   -2.4520 hc        1 MOL      0.131136
    159 N14        -4.3390   -1.0520    2.0570 n         1 MOL     -0.379414
    160 C53        -3.3630   -1.4410    3.1170 c3        1 MOL      0.073916
    161 C54        -3.6870   -0.8240    4.4180 c         1 MOL      0.417575
    162 O24        -3.4750   -1.4580    5.4430 o         1 MOL     -0.586661
    163 C55        -1.9590   -0.9740    2.6810 c3        1 MOL     -0.168627
    164 C56        -1.5440   -1.7700    1.5300 c3        1 MOL      0.199183
    165 C57        -0.4020   -1.1700    0.8160 c         1 MOL      0.481210
    166 O25         0.3230   -1.8290    0.1410 o         1 MOL     -0.585147
    167 O26        -0.1260    0.0640    0.8040 o         1 MOL     -0.585147
    168 H71        -4.2440   -0.0910    1.7880 hn        1 MOL      0.114723
    169 H72        -3.3050   -2.5260    3.2220 h1        1 MOL      0.068892
    170 H73        -1.2450   -1.1020    3.4890 hc        1 MOL      0.069328
    171 H74        -2.0270    0.0650    2.3610 hc        1 MOL      0.069328
    172 H75        -2.3460   -1.9600    0.8130 hc        1 MOL     -0.023218
    173 H76        -1.2810   -2.7330    1.9500 hc        1 MOL     -0.023218
    174 N15        -4.2780    0.3310    4.4710 n         1 MOL     -0.054790
    175 C58        -4.5510    0.9930    5.8190 c3        1 MOL     -0.207641
    176 H77        -5.5810    0.7970    6.1170 h1        1 MOL      0.083079
    177 H78        -3.8720    0.5850    6.5690 h1        1 MOL      0.083079
    178 H79        -4.3960    2.0680    5.7340 h1        1 MOL      0.083079
    179 H80        -4.5870    0.7550    3.6080 hn        1 MOL      0.098403
    180 Ca1         2.3160   -0.2480    0.1580 Ca        1 MOL      1.689229
    181 O27         2.1540   -0.9360    2.7950 oh        1 MOL     -0.924130
    182 H81         2.0380   -1.6200    3.4510 ho        1 MOL      0.425135
    183 H82         1.9330   -0.1280    3.2500 ho        1 MOL      0.425135
    184 O28         4.6560   -0.0250    1.6070 oh        1 MOL     -0.924130
    185 H83         4.5150    0.1840    2.5310 ho        1 MOL      0.425135
    186 H84         4.8510   -0.9610    1.5990 ho        1 MOL      0.425135
    187 O29         1.0580    1.5550   -1.4200 oh        1 MOL     -0.924130
    188 H85         1.7260    2.1520   -1.7520 ho        1 MOL      0.425135
    189 H86         0.5260    1.3400   -2.1880 ho        1 MOL      0.425135
@<TRIPOS>BOND
     1    1    2 1   
     2    1    4 1   
     3    1    5 1   
     4    1    6 1   
     5    2    3 2   
     6    2    7 1   
     7    7    8 1   
     8    7   15 1   
     9    8    9 1   
    10    8   11 1   
    11    8   16 1   
    12    9   10 2   
    13    9   19 1   
    14   11   12 1   
    15   11   17 1   
    16   11   18 1   
    17   12   13 1   
    18   12   14 1   
    19   19   20 1   
    20   19   27 1   
    21   20   21 1   
    22   20   23 1   
    23   20   28 1   
    24   21   22 2   
    25   21   38 1   
    26   23   24 1   
    27   23   25 1   
    28   23   29 1   
    29   24   26 1   
    30   24   30 1   
    31   24   31 1   
    32   25   32 1   
    33   25   33 1   
    34   25   34 1   
    35   26   35 1   
    36   26   36 1   
    37   26   37 1   
    38   38   39 1   
    39   38   46 1   
    40   39   40 1   
    41   39   42 1   
    42   39   47 1   
    43   40   41 2   
    44   40   50 1   
    45   42   43 1   
    46   42   48 1   
    47   42   49 1   
    48   43   44 1   
    49   43   45 1   
    50   50   51 1   
    51   50   54 1   
    52   51   52 1   
    53   51   55 1   
    54   51   56 1   
    55   52   53 2   
    56   52   57 1   
    57   57   58 1   
    58   57   65 1   
    59   58   59 1   
    60   58   61 1   
    61   58   66 1   
    62   59   60 2   
    63   59   69 1   
    64   61   62 1   
    65   61   67 1   
    66   61   68 1   
    67   62   63 1   
    68   62   64 1   
    69   69   70 1   
    70   69   73 1   
    71   70   71 1   
    72   70   74 1   
    73   70   75 1   
    74   71   72 2   
    75   71   76 1   
    76   76   77 1   
    77   76   85 1   
    78   77   78 1   
    79   77   80 1   
    80   77   86 1   
    81   78   79 2   
    82   78   93 1   
    83   80   81 1   
    84   80   87 1   
    85   80   88 1   
    86   81   82 1   
    87   81   89 1   
    88   81   90 1   
    89   82   83 1   
    90   82   84 2   
    91   83   91 1   
    92   83   92 1   
    93   93   94 1   
    94   93  100 1   
    95   94   95 1   
    96   94   97 1   
    97   94  101 1   
    98   95   96 2   
    99   95  109 1   
   100   97   98 1   
   101   97   99 1   
   102   97  102 1   
   103   98  103 1   
   104   98  104 1   
   105   98  105 1   
   106   99  106 1   
   107   99  107 1   
   108   99  108 1   
   109  109  110 1   
   110  109  117 1   
   111  110  111 1   
   112  110  113 1   
   113  110  118 1   
   114  111  112 2   
   115  111  123 1   
   116  113  114 1   
   117  113  119 1   
   118  113  120 1   
   119  114  115 1   
   120  114  116 2   
   121  115  121 1   
   122  115  122 1   
   123  123  124 1   
   124  123  135 1   
   125  124  125 1   
   126  124  127 1   
   127  124  136 1   
   128  125  126 2   
   129  125  144 1   
   130  127  128 1   
   131  127  137 1   
   132  127  138 1   
   133  128  129 ar  
   134  128  130 ar  
   135  129  131 ar  
   136  129  139 1   
   137  130  132 ar  
   138  130  140 1   
   139  131  133 ar  
   140  131  141 1   
   141  132  133 ar  
   142  132  142 1   
   143  133  134 1   
   144  134  143 1   
   145  144  145 1   
   146  144  153 1   
   147  145  146 1   
   148  145  148 1   
   149  145  154 1   
   150  146  147 2   
   151  146  159 1   
   152  148  149 1   
   153  148  155 1   
   154  148  156 1   
   155  149  150 1   
   156  149  157 1   
   157  149  158 1   
   158  150  151 1   
   159  150  152 1   
   160  159  160 1   
   161  159  168 1   
   162  160  161 1   
   163  160  163 1   
   164  160  169 1   
   165  161  162 2   
   166  161  174 1   
   167  163  164 1   
   168  163  170 1   
   169  163  171 1   
   170  164  165 1   
   171  164  172 1   
   172  164  173 1   
   173  165  166 1   
   174  165  167 1   
   175  174  175 1   
   176  174  179 1   
   177  175  176 1   
   178  175  177 1   
   179  175  178 1   
   180  181  182 1   
   181  181  183 1   
   182  184  185 1   
   183  184  186 1   
   184  187  188 1   
   185  187  189 1   
@<TRIPOS>SUBSTRUCTURE
     1 MOL         1 TEMP              0 ****  ****    0 ROOT
