@<TRIPOS>MOLECULE
MOL
  189   185     1     0     0
SMALL
resp


@<TRIPOS>ATOM
      1 C1         -1.0730    2.9890    6.1700 c3        1 MOL     -0.398804
      2 C2         -1.1140    2.5100    4.6790 c         1 MOL      0.756344
      3 O1         -0.0780    2.6380    4.0420 o         1 MOL     -0.619035
      4 H1         -1.5620    2.2490    6.8030 hc        1 MOL      0.097525
      5 H2         -0.0370    3.1080    6.4850 hc        1 MOL      0.097525
      6 H3         -1.5930    3.9430    6.2590 hc        1 MOL      0.097525
      7 N1         -2.2750    2.0600    4.1780 n         1 MOL     -0.675271
      8 C3         -2.4320    1.7810    2.7370 c3        1 MOL      0.188019
      9 C4         -2.7930    3.1280    2.0420 c         1 MOL      0.604739
     10 O2         -3.6450    3.8730    2.5120 o         1 MOL     -0.588794
     11 C5         -3.5740    0.7050    2.5860 c3        1 MOL     -0.370821
     12 C6         -4.0260    0.5700    1.1520 c         1 MOL      0.834004
     13 O3         -3.1720    0.5930    0.2330 o         1 MOL     -0.751654
     14 O4         -5.2900    0.3190    0.8990 o         1 MOL     -0.751654
     15 H4         -3.0390    1.8870    4.8220 hn        1 MOL      0.354618
     16 H5         -1.5580    1.3710    2.2300 h1        1 MOL     -0.050762
     17 H6         -4.4520    1.1000    3.1030 hc        1 MOL      0.103562
     18 H7         -3.2780   -0.2420    3.0410 hc        1 MOL      0.103562
     19 N2         -2.2630    3.5050    0.9020 n         1 MOL     -0.430907
     20 C7         -2.4610    4.8180    0.2580 c3        1 MOL     -0.027179
     21 C8         -3.6620    4.7840   -0.7740 c         1 MOL      0.478815
     22 O5         -4.2770    5.8360   -1.0860 o         1 MOL     -0.560908
     23 C9         -1.0450    5.2590   -0.3740 c3        1 MOL      0.013750
     24 C10         0.1360    5.2010    0.5420 c3        1 MOL      0.006299
     25 C11         0.0940    5.9690    1.8630 c3        1 MOL     -0.082336
     26 C12        -0.4580    7.4650    1.7520 c3        1 MOL      0.133112
     27 N3         -1.0170    7.9550    3.0280 n4        1 MOL     -0.392384
     28 H8         -1.6300    2.8890    0.4220 hn        1 MOL      0.337579
     29 H9         -2.6280    5.6180    0.9770 h1        1 MOL      0.084343
     30 H10        -1.1490    6.2710   -0.7430 hc        1 MOL      0.012670
     31 H11        -0.9330    4.5810   -1.2270 hc        1 MOL      0.012670
     32 H12         1.0370    5.5350    0.0230 hc        1 MOL      0.037543
     33 H13         0.3970    4.1480    0.6910 hc        1 MOL      0.037543
     34 H14         1.1230    6.1290    2.2150 hc        1 MOL      0.049874
     35 H15        -0.4500    5.3760    2.5900 hc        1 MOL      0.049874
     36 H16        -1.1970    7.4250    0.9540 hx        1 MOL      0.030545
     37 H17         0.3030    8.1420    1.3540 hx        1 MOL      0.030545
     38 H18        -0.3360    8.0300    3.7600 hn        1 MOL      0.335726
     39 H19        -1.2210    8.9290    2.8550 hn        1 MOL      0.335726
     40 H20        -1.8920    7.5110    3.2800 hn        1 MOL      0.335726
     41 N4         -4.2150    3.5650   -1.1150 n         1 MOL     -0.278942
     42 C13        -5.1710    3.2230   -2.2290 c3        1 MOL     -0.063663
     43 C14        -6.5520    2.7110   -1.8140 c         1 MOL      0.417038
     44 O6         -7.4190    2.4810   -2.6810 o         1 MOL     -0.529676
     45 C15        -4.4380    2.2010   -3.1700 c3        1 MOL      0.125724
     46 C16        -2.9100    2.3560   -3.3050 c         1 MOL      0.649082
     47 O7         -2.1910    1.6110   -2.6220 o         1 MOL     -0.665106
     48 O8         -2.4550    3.2010   -4.1280 o         1 MOL     -0.665106
     49 H21        -3.6760    2.7700   -0.7810 hn        1 MOL      0.187423
     50 H22        -5.3060    4.1040   -2.8570 h1        1 MOL      0.122256
     51 H23        -4.8540    2.4610   -4.1440 hc        1 MOL     -0.045798
     52 H24        -4.7120    1.1990   -2.8470 hc        1 MOL     -0.045798
     53 N5         -6.8780    2.3590   -0.5600 n         1 MOL     -0.322266
     54 C17        -8.0810    1.5380   -0.2860 c3        1 MOL     -0.249078
     55 C18        -7.9190    0.0960   -0.8390 c         1 MOL      0.464229
     56 O9         -8.9400   -0.6230   -0.8180 o         1 MOL     -0.571396
     57 H25        -6.1570    2.4160    0.1490 hn        1 MOL      0.236763
     58 H26        -8.9910    1.9870   -0.6830 h1        1 MOL      0.147990
     59 H27        -8.1710    1.5250    0.7980 h1        1 MOL      0.147990
     60 N6         -6.7760   -0.3990   -1.3480 n         1 MOL     -0.098931
     61 C19        -6.7170   -1.7530   -1.9550 c3        1 MOL     -0.419192
     62 C20        -6.7070   -2.8980   -0.8490 c         1 MOL      0.566874
     63 O10        -6.9350   -4.0530   -1.1670 o         1 MOL     -0.541756
     64 C21        -5.5990   -2.0000   -2.9660 c3        1 MOL     -0.041861
     65 C22        -4.2540   -1.7200   -2.3460 c         1 MOL      0.597058
     66 O11        -3.4320   -1.0930   -3.0470 o         1 MOL     -0.726929
     67 O12        -3.9150   -2.1780   -1.2620 o         1 MOL     -0.726929
     68 H28        -5.9430    0.0750   -1.0380 hn        1 MOL      0.388016
     69 H29        -7.6150   -1.8620   -2.5590 h1        1 MOL      0.199440
     70 H30        -5.6920   -1.2940   -3.7830 hc        1 MOL      0.063884
     71 H31        -5.5390   -2.9750   -3.4640 hc        1 MOL      0.063884
     72 N7         -6.3810   -2.6300    0.4180 n         1 MOL     -0.221366
     73 C23        -6.3520   -3.6800    1.4720 c3        1 MOL     -0.103796
     74 C24        -5.0700   -4.5600    1.5130 c         1 MOL      0.654516
     75 O13        -5.1230   -5.7040    1.7860 o         1 MOL     -0.571324
     76 H32        -6.1270   -1.7010    0.7220 hn        1 MOL      0.219083
     77 H33        -7.2170   -4.3200    1.3270 h1        1 MOL      0.058201
     78 H34        -6.3320   -3.2800    2.4860 h1        1 MOL      0.058201
     79 N8         -3.9150   -3.9970    1.1270 n         1 MOL     -0.441823
     80 C25        -2.6250   -4.7390    0.9510 c3        1 MOL     -0.118281
     81 C26        -1.4450   -3.7150    1.0470 c         1 MOL      0.650626
     82 O14        -1.6300   -2.5370    0.8160 o         1 MOL     -0.612640
     83 C27        -2.4860   -5.4690   -0.4060 c3        1 MOL      0.456970
     84 C28        -3.1250   -6.8710   -0.3670 c3        1 MOL     -0.637419
     85 O15        -3.0720   -4.7980   -1.5110 oh        1 MOL     -0.615478
     86 H35        -3.9290   -3.0670    0.7280 hn        1 MOL      0.266216
     87 H36        -2.4460   -5.4920    1.7270 h1        1 MOL      0.116841
     88 H37        -1.4330   -5.5240   -0.7120 h1        1 MOL     -0.042975
     89 H38        -3.3410   -3.9710   -1.1130 ho        1 MOL      0.448237
     90 H39        -4.1860   -6.7080   -0.2000 hc        1 MOL      0.175673
     91 H40        -3.1910   -7.3170   -1.3610 hc        1 MOL      0.175673
     92 H41        -2.6870   -7.4950    0.3990 hc        1 MOL      0.175673
     93 N9         -0.2360   -4.1150    1.5320 n         1 MOL     -0.685941
     94 C29         0.8990   -3.2420    1.7120 c3        1 MOL      0.418658
     95 C30         2.0230   -3.7220    0.8310 c         1 MOL      0.287708
     96 O16         2.5080   -4.9090    0.9410 o         1 MOL     -0.550321
     97 C31         1.2740   -3.0330    3.1460 c3        1 MOL     -0.013454
     98 C32         0.1340   -2.2540    3.9540 c3        1 MOL     -0.012428
     99 C33         2.6090   -2.3960    3.2960 c3        1 MOL     -0.122414
    100 C34         0.0370   -0.8000    3.6390 c3        1 MOL     -0.052766
    101 H42        -0.1350   -5.1170    1.6780 hn        1 MOL      0.308381
    102 H43         0.6360   -2.2170    1.4550 h1        1 MOL     -0.017395
    103 H44         1.3240   -4.0450    3.5520 hc        1 MOL      0.004496
    104 H45         0.3570   -2.3720    5.0210 hc        1 MOL      0.001798
    105 H46        -0.8170   -2.7710    3.8470 hc        1 MOL      0.001798
    106 H47         2.7670   -2.1820    4.3560 hc        1 MOL      0.026953
    107 H48         3.4050   -3.0980    3.0560 hc        1 MOL      0.026953
    108 H49         2.6810   -1.4680    2.7190 hc        1 MOL      0.026953
    109 H50         0.9150   -0.3090    4.0460 hc        1 MOL      0.055460
    110 H51        -0.0640   -0.7090    2.5520 hc        1 MOL      0.055460
    111 H52        -0.9020   -0.4940    4.1050 hc        1 MOL      0.055460
    112 N10         2.5650   -2.8300    0.0350 n         1 MOL      0.075286
    113 C35         3.7900   -3.0600   -0.7490 c3        1 MOL     -0.045589
    114 C36         5.0990   -2.5570   -0.1450 c         1 MOL      0.384708
    115 O17         5.0560   -1.7930    0.8350 o         1 MOL     -0.461817
    116 C37         3.6690   -2.4480   -2.1000 c3        1 MOL      0.428893
    117 C38         2.4510   -2.9400   -2.9150 c3        1 MOL     -0.480600
    118 O18         3.5000   -1.0790   -2.0960 oh        1 MOL     -0.714677
    119 H53         2.1210   -1.9160    0.0280 hn        1 MOL     -0.061394
    120 H54         3.8520   -4.1330   -0.9210 h1        1 MOL      0.039247
    121 H55         4.5280   -2.7670   -2.6900 h1        1 MOL     -0.012854
    122 H56         2.5990   -0.9040   -1.7970 ho        1 MOL      0.515480
    123 H57         2.5060   -4.0230   -3.0290 hc        1 MOL      0.103628
    124 H58         1.5070   -2.7210   -2.4130 hc        1 MOL      0.103628
    125 H59         2.3930   -2.4200   -3.8650 hc        1 MOL      0.103628
    126 N11         6.2220   -2.9750   -0.7030 n         1 MOL     -0.276855
    127 C39         7.5720   -2.7240   -0.0930 c3        1 MOL     -0.100094
    128 C40         7.8760   -1.2150   -0.0030 c         1 MOL      0.351278
    129 O19         8.5680   -0.8390    0.9500 o         1 MOL     -0.476160
    130 C41         8.6880   -3.3310   -0.9470 c3        1 MOL      0.295488
    131 C42         8.5700   -4.8210   -1.0060 c3        1 MOL     -0.265621
    132 O20         8.7120   -2.8520   -2.3100 oh        1 MOL     -0.646448
    133 H60         6.2520   -3.6320   -1.4680 hn        1 MOL      0.266591
    134 H61         7.7460   -3.1990    0.8710 h1        1 MOL      0.142102
    135 H62         9.6030   -3.0590   -0.4100 h1        1 MOL      0.031523
    136 H63         9.5220   -3.2000   -2.6800 ho        1 MOL      0.417658
    137 H64         7.5220   -5.0950   -1.1520 hc        1 MOL      0.074999
    138 H65         9.1150   -5.1550   -1.8950 hc        1 MOL      0.074999
    139 H66         8.9330   -5.3180   -0.1140 hc        1 MOL      0.074999
    140 N12         7.3500   -0.3210   -0.8510 n         1 MOL     -0.137229
    141 C43         7.4160    1.1750   -0.8340 c3        1 MOL     -0.260099
    142 C44         6.5560    1.7470    0.2760 c         1 MOL      0.409521
    143 O21         6.9900    2.5260    1.1490 o         1 MOL     -0.517012
    144 C45         7.0400    1.6890   -2.1700 c3        1 MOL      0.153189
    145 C46         7.4220    3.1440   -2.4260 c3        1 MOL     -0.236985
    146 C47         7.2110    3.6930   -3.8530 c3        1 MOL      0.065652
    147 C48         7.4490    5.2440   -3.9820 c3        1 MOL      0.080776
    148 N13         6.7800    5.7790   -5.1970 n4        1 MOL     -0.362745
    149 H67         6.9710   -0.7900   -1.6690 hn        1 MOL      0.190121
    150 H68         8.4650    1.4560   -0.7100 h1        1 MOL      0.145278
    151 H69         5.9590    1.4990   -2.1980 hc        1 MOL      0.004597
    152 H70         7.4250    1.1400   -3.0280 hc        1 MOL      0.004597
    153 H71         8.5100    3.1460   -2.4040 hc        1 MOL      0.085345
    154 H72         6.9690    3.8550   -1.7320 hc        1 MOL      0.085345
    155 H73         6.1660    3.4810   -4.0860 hc        1 MOL      0.013325
    156 H74         7.8630    3.2070   -4.5820 hc        1 MOL      0.013325
    157 H75         8.5170    5.4360   -3.9010 hx        1 MOL      0.071098
    158 H76         7.0590    5.7390   -3.0900 hx        1 MOL      0.071098
    159 H77         7.0950    5.3080   -6.0360 hn        1 MOL      0.291107
    160 H78         5.7840    5.6210   -5.1550 hn        1 MOL      0.291107
    161 H79         6.9170    6.7770   -5.2520 hn        1 MOL      0.291107
    162 N14         5.3940    1.1320    0.4940 n         1 MOL     -0.102024
    163 C49         4.4920    1.4470    1.5910 c3        1 MOL     -0.259436
    164 C50         4.8590    0.9070    2.9690 c         1 MOL      0.527698
    165 O22         4.4360    1.5090    3.9390 o         1 MOL     -0.559498
    166 C51         3.0520    0.9600    1.2000 c3        1 MOL      0.119250
    167 C52         2.4690    1.3890   -0.0720 c3        1 MOL     -0.028499
    168 C53         1.1360    0.5870   -0.3340 c         1 MOL      0.812346
    169 O23         1.0740   -0.5130   -0.8970 o         1 MOL     -0.752315
    170 O24         0.0930    1.1940   -0.0820 o         1 MOL     -0.752315
    171 H80         5.2070    0.3430   -0.1010 hn        1 MOL      0.205168
    172 H81         4.4070    2.5320    1.6860 h1        1 MOL      0.128384
    173 H82         2.3760    1.1890    2.0210 hc        1 MOL      0.036546
    174 H83         3.1780   -0.1220    1.2120 hc        1 MOL      0.036546
    175 H84         3.1130    1.0950   -0.9060 hc        1 MOL     -0.056064
    176 H85         2.3340    2.4680   -0.0790 hc        1 MOL     -0.056064
    177 N15         5.6680   -0.1410    3.0990 n         1 MOL     -0.165811
    178 C54         6.1140   -0.7590    4.3640 c3        1 MOL     -0.255297
    179 H86         5.6440   -1.7370    4.4760 h1        1 MOL      0.106411
    180 H87         7.1970   -0.8770    4.3500 h1        1 MOL      0.106411
    181 H88         5.8280   -0.1220    5.2010 h1        1 MOL      0.106411
    182 H89         6.1170   -0.4120    2.2380 hn        1 MOL      0.223447
    183 Ca1        -1.5490   -0.7280   -1.3770 Ca        1 MOL      1.786672
    184 O25         0.0300   -0.6980   -3.5780 oh        1 MOL     -0.851053
    185 H90        -0.1070   -1.1840   -4.3900 ho        1 MOL      0.412239
    186 H91         0.8170   -0.1790   -3.7460 ho        1 MOL      0.412239
    187 O26        -0.8740   -3.1940   -2.3590 oh        1 MOL     -0.851053
    188 H92        -1.5620   -3.8660   -2.3910 ho        1 MOL      0.412239
    189 H93        -0.5960   -3.0930   -3.2700 ho        1 MOL      0.412239
@<TRIPOS>BOND
     1    1    2 1   
     2    1    4 1   
     3    1    5 1   
     4    1    6 1   
     5    2    3 2   
     6    2    7 1   
     7    7    8 1   
     8    7   15 1   
     9    8    9 1   
    10    8   11 1   
    11    8   16 1   
    12    9   10 2   
    13    9   19 1   
    14   11   12 1   
    15   11   17 1   
    16   11   18 1   
    17   12   13 1   
    18   12   14 1   
    19   19   20 1   
    20   19   28 1   
    21   20   21 1   
    22   20   23 1   
    23   20   29 1   
    24   21   22 2   
    25   21   41 1   
    26   23   24 1   
    27   23   30 1   
    28   23   31 1   
    29   24   25 1   
    30   24   32 1   
    31   24   33 1   
    32   25   26 1   
    33   25   34 1   
    34   25   35 1   
    35   26   27 1   
    36   26   36 1   
    37   26   37 1   
    38   27   38 1   
    39   27   39 1   
    40   27   40 1   
    41   41   42 1   
    42   41   49 1   
    43   42   43 1   
    44   42   45 1   
    45   42   50 1   
    46   43   44 2   
    47   43   53 1   
    48   45   46 1   
    49   45   51 1   
    50   45   52 1   
    51   46   47 1   
    52   46   48 1   
    53   53   54 1   
    54   53   57 1   
    55   54   55 1   
    56   54   58 1   
    57   54   59 1   
    58   55   56 2   
    59   55   60 1   
    60   60   61 1   
    61   60   68 1   
    62   61   62 1   
    63   61   64 1   
    64   61   69 1   
    65   62   63 2   
    66   62   72 1   
    67   64   65 1   
    68   64   70 1   
    69   64   71 1   
    70   65   66 1   
    71   65   67 1   
    72   72   73 1   
    73   72   76 1   
    74   73   74 1   
    75   73   77 1   
    76   73   78 1   
    77   74   75 2   
    78   74   79 1   
    79   79   80 1   
    80   79   86 1   
    81   80   81 1   
    82   80   83 1   
    83   80   87 1   
    84   81   82 2   
    85   81   93 1   
    86   83   84 1   
    87   83   85 1   
    88   83   88 1   
    89   84   90 1   
    90   84   91 1   
    91   84   92 1   
    92   85   89 1   
    93   93   94 1   
    94   93  101 1   
    95   94   95 1   
    96   94   97 1   
    97   94  102 1   
    98   95   96 2   
    99   95  112 1   
   100   97   98 1   
   101   97   99 1   
   102   97  103 1   
   103   98  100 1   
   104   98  104 1   
   105   98  105 1   
   106   99  106 1   
   107   99  107 1   
   108   99  108 1   
   109  100  109 1   
   110  100  110 1   
   111  100  111 1   
   112  112  113 1   
   113  112  119 1   
   114  113  114 1   
   115  113  116 1   
   116  113  120 1   
   117  114  115 2   
   118  114  126 1   
   119  116  117 1   
   120  116  118 1   
   121  116  121 1   
   122  117  123 1   
   123  117  124 1   
   124  117  125 1   
   125  118  122 1   
   126  126  127 1   
   127  126  133 1   
   128  127  128 1   
   129  127  130 1   
   130  127  134 1   
   131  128  129 2   
   132  128  140 1   
   133  130  131 1   
   134  130  132 1   
   135  130  135 1   
   136  131  137 1   
   137  131  138 1   
   138  131  139 1   
   139  132  136 1   
   140  140  141 1   
   141  140  149 1   
   142  141  142 1   
   143  141  144 1   
   144  141  150 1   
   145  142  143 2   
   146  142  162 1   
   147  144  145 1   
   148  144  151 1   
   149  144  152 1   
   150  145  146 1   
   151  145  153 1   
   152  145  154 1   
   153  146  147 1   
   154  146  155 1   
   155  146  156 1   
   156  147  148 1   
   157  147  157 1   
   158  147  158 1   
   159  148  159 1   
   160  148  160 1   
   161  148  161 1   
   162  162  163 1   
   163  162  171 1   
   164  163  164 1   
   165  163  166 1   
   166  163  172 1   
   167  164  165 2   
   168  164  177 1   
   169  166  167 1   
   170  166  173 1   
   171  166  174 1   
   172  167  168 1   
   173  167  175 1   
   174  167  176 1   
   175  168  169 1   
   176  168  170 1   
   177  177  178 1   
   178  177  182 1   
   179  178  179 1   
   180  178  180 1   
   181  178  181 1   
   182  184  185 1   
   183  184  186 1   
   184  187  188 1   
   185  187  189 1   
@<TRIPOS>SUBSTRUCTURE
     1 MOL         1 TEMP              0 ****  ****    0 ROOT
