@<TRIPOS>MOLECULE
MOL
  189   185     1     0     0
SMALL
resp


@<TRIPOS>ATOM
      1 C1          0.5060    1.5780    5.7900 c3        1 MOL     -0.371304
      2 C2          0.0490    1.4990    4.3320 c         1 MOL      0.618188
      3 O1          0.8530    1.5700    3.4450 o         1 MOL     -0.528166
      4 H1         -0.3320    1.3430    6.4450 hc        1 MOL      0.097603
      5 H2          1.3100    0.8620    5.9580 hc        1 MOL      0.097603
      6 H3          0.8650    2.5850    6.0050 hc        1 MOL      0.097603
      7 N1         -1.2550    1.3740    4.1190 n         1 MOL     -0.533110
      8 C3         -1.9200    1.3790    2.8050 c3        1 MOL      0.070202
      9 C4         -2.0930    2.8140    2.2710 c         1 MOL      0.499653
     10 O2         -2.8010    3.6370    2.8150 o         1 MOL     -0.584924
     11 C5         -3.2150    0.5880    2.8470 c3        1 MOL     -0.165676
     12 C6         -4.0010    0.4290    1.5010 c         1 MOL      0.803431
     13 O3         -5.1290   -0.0960    1.4070 o         1 MOL     -0.651826
     14 O4         -3.4590    0.9800    0.4910 o         1 MOL     -0.651826
     15 H4         -1.8850    1.3640    4.9060 hn        1 MOL      0.322912
     16 H5         -1.2440    0.9070    2.0840 h1        1 MOL     -0.021329
     17 H6         -3.9360    0.9330    3.5890 hc        1 MOL      0.041894
     18 H7         -2.9840   -0.4400    3.1570 hc        1 MOL      0.041894
     19 N2         -1.2340    3.1530    1.3160 n         1 MOL     -0.053052
     20 C7         -1.0550    4.5770    0.9290 c3        1 MOL     -0.233320
     21 C8         -2.0530    4.9140   -0.2380 c         1 MOL      0.496894
     22 O5         -2.1550    6.0830   -0.5700 o         1 MOL     -0.573951
     23 C9          0.3920    4.7740    0.5390 c3        1 MOL      0.013509
     24 C10         1.3430    4.4000    1.7520 c3        1 MOL     -0.128785
     25 C11         1.1110    4.8760    3.1660 c3        1 MOL     -0.142025
     26 C12         1.0460    6.3820    3.3120 c3        1 MOL      0.071552
     27 N3          0.7120    6.6500    4.7490 n4        1 MOL     -0.490220
     28 H8         -0.6520    2.4230    0.9430 hn        1 MOL      0.226739
     29 H9         -1.2650    5.3600    1.6680 h1        1 MOL      0.116591
     30 H10         0.5920    5.8440    0.4520 hc        1 MOL      0.036160
     31 H11         0.7290    4.2670   -0.3660 hc        1 MOL      0.036160
     32 H12         2.3030    4.8210    1.4780 hc        1 MOL      0.055560
     33 H13         1.4110    3.3100    1.7940 hc        1 MOL      0.055560
     34 H14         1.8770    4.4510    3.8220 hc        1 MOL      0.076401
     35 H15         0.1480    4.4070    3.3870 hc        1 MOL      0.076401
     36 H16         0.2250    6.7660    2.6990 hx        1 MOL      0.092255
     37 H17         2.0290    6.8120    3.1000 hx        1 MOL      0.092255
     38 H18         0.5550    7.6420    4.8770 hn        1 MOL      0.359271
     39 H19        -0.1390    6.1760    5.0060 hn        1 MOL      0.359271
     40 H20         1.4910    6.2900    5.2820 hn        1 MOL      0.359271
     41 N4         -2.7940    4.0100   -0.7280 n         1 MOL     -0.200442
     42 C13        -3.8490    4.2840   -1.6830 c3        1 MOL      0.029891
     43 C14        -5.2340    3.7780   -1.3710 c         1 MOL      0.349635
     44 O6         -6.2220    4.2800   -1.9820 o         1 MOL     -0.500506
     45 C15        -3.4690    4.1240   -3.1890 c3        1 MOL     -0.131304
     46 C16        -3.0190    2.7070   -3.6470 c         1 MOL      0.802499
     47 O7         -3.1480    1.7780   -2.8040 o         1 MOL     -0.716721
     48 O8         -2.3210    2.4780   -4.6290 o         1 MOL     -0.716721
     49 H21        -2.7120    3.0450   -0.4300 hn        1 MOL      0.112965
     50 H22        -3.9820    5.3670   -1.6800 h1        1 MOL      0.078884
     51 H23        -2.7070    4.8800   -3.3640 hc        1 MOL      0.031565
     52 H24        -4.3210    4.4200   -3.8170 hc        1 MOL      0.031565
     53 N5         -5.3700    2.8330   -0.4390 n         1 MOL     -0.044281
     54 C17        -6.6170    2.4480    0.1460 c3        1 MOL     -0.186945
     55 C18        -7.3930    1.4860   -0.7140 c         1 MOL      0.577172
     56 O9         -8.3660    1.8900   -1.2760 o         1 MOL     -0.536772
     57 H25        -4.5410    2.3760   -0.1020 hn        1 MOL      0.077831
     58 H26        -7.2960    3.2830    0.3010 h1        1 MOL      0.075420
     59 H27        -6.4070    1.9980    1.1110 h1        1 MOL      0.075420
     60 N6         -6.8420    0.2540   -0.9210 n         1 MOL     -0.237863
     61 C19        -7.4860   -0.8760   -1.5580 c3        1 MOL      0.020942
     62 C20        -7.4980   -2.1470   -0.6380 c         1 MOL      0.470854
     63 O10        -8.0150   -3.1850   -1.0410 o         1 MOL     -0.540812
     64 C21        -6.8260   -1.1090   -2.9550 c3        1 MOL     -0.028392
     65 C22        -5.2930   -1.1800   -3.0410 c         1 MOL      0.642905
     66 O11        -4.5830   -1.1040   -2.0180 o         1 MOL     -0.662585
     67 O12        -4.7990   -1.5680   -4.1360 o         1 MOL     -0.662585
     68 H28        -5.9580    0.0520   -0.4710 hn        1 MOL     -0.019520
     69 H29        -8.5240   -0.6020   -1.7510 h1        1 MOL      0.051217
     70 H30        -7.0930   -0.2350   -3.5420 hc        1 MOL      0.026058
     71 H31        -7.3330   -1.9510   -3.4320 hc        1 MOL      0.026058
     72 N7         -6.8530   -2.0800    0.5340 n         1 MOL     -0.357405
     73 C23        -6.7660   -3.2340    1.4590 c3        1 MOL     -0.124619
     74 C24        -5.5340   -4.1280    1.3270 c         1 MOL      0.498109
     75 O13        -5.4570   -5.1000    2.0340 o         1 MOL     -0.559840
     76 H32        -6.2970   -1.2590    0.7470 hn        1 MOL      0.268949
     77 H33        -7.6690   -3.8520    1.4760 h1        1 MOL      0.105827
     78 H34        -6.6900   -2.8470    2.4760 h1        1 MOL      0.105827
     79 N8         -4.5640   -3.7890    0.4900 n         1 MOL     -0.210376
     80 C25        -3.2670   -4.4320    0.6440 c3        1 MOL     -0.155834
     81 C26        -2.0620   -3.4560    0.7750 c         1 MOL      0.812993
     82 O14        -2.1710   -2.2970    0.3390 o         1 MOL     -0.758278
     83 C27        -3.0180   -5.4670   -0.5020 c3        1 MOL      0.356187
     84 C28        -3.8790   -6.7340   -0.4850 c3        1 MOL     -0.318879
     85 O15        -3.4030   -4.9650   -1.7440 oh        1 MOL     -0.644834
     86 H35        -4.7690   -3.0090   -0.1090 hn        1 MOL      0.228670
     87 H36        -3.2320   -5.0120    1.5680 h1        1 MOL      0.075127
     88 H37        -1.9980   -5.8520   -0.4890 h1        1 MOL      0.038131
     89 H38        -4.3500   -4.9270   -1.8790 ho        1 MOL      0.416101
     90 H39        -4.8960   -6.3630   -0.4280 hc        1 MOL      0.078903
     91 H40        -3.7420   -7.4840   -1.2650 hc        1 MOL      0.078903
     92 H41        -3.7660   -7.2640    0.4580 hc        1 MOL      0.078903
     93 N9         -0.9280   -3.9210    1.3300 n         1 MOL     -0.672187
     94 C29         0.2650   -3.0920    1.5370 c3        1 MOL      0.100865
     95 C30         1.3420   -3.6800    0.6100 c         1 MOL      0.481460
     96 O16         1.4820   -4.9180    0.5740 o         1 MOL     -0.558085
     97 C31         0.6580   -2.9600    2.9810 c3        1 MOL      0.150283
     98 C32        -0.4010   -2.4790    3.9800 c3        1 MOL      0.116754
     99 C33         1.9490   -2.0770    3.1510 c3        1 MOL     -0.552892
    100 C34        -0.4030   -3.1250    5.3990 c3        1 MOL     -0.113743
    101 H42        -0.9010   -4.8820    1.6480 hn        1 MOL      0.328655
    102 H43         0.1450   -2.0550    1.2100 h1        1 MOL      0.121942
    103 H44         0.7750   -3.9850    3.3430 hc        1 MOL      0.003867
    104 H45        -1.4210   -2.6290    3.6370 hc        1 MOL     -0.000085
    105 H46        -0.3190   -1.4230    4.2130 hc        1 MOL     -0.000085
    106 H47         2.2070   -2.1130    4.2160 hc        1 MOL      0.125831
    107 H48         2.7760   -2.5180    2.6020 hc        1 MOL      0.125831
    108 H49         1.8520   -1.0430    2.8330 hc        1 MOL      0.125831
    109 H50         0.6180   -3.1920    5.7790 hc        1 MOL      0.018420
    110 H51        -1.0510   -2.5890    6.0990 hc        1 MOL      0.018420
    111 H52        -0.8270   -4.1140    5.2630 hc        1 MOL      0.018420
    112 N10         2.1100   -2.8090   -0.0140 n         1 MOL     -0.222598
    113 C35         3.3300   -3.1660   -0.7770 c3        1 MOL      0.023153
    114 C36         4.6710   -2.9830   -0.0310 c         1 MOL      0.512837
    115 O17         4.7840   -2.2990    1.0030 o         1 MOL     -0.420040
    116 C37         3.4240   -2.3880   -2.1310 c3        1 MOL      0.257998
    117 C38         2.2760   -2.7070   -3.0950 c3        1 MOL     -0.535415
    118 O18         3.3420   -1.0630   -1.8510 oh        1 MOL     -0.463647
    119 H53         1.8320   -1.8640    0.2010 hn        1 MOL      0.154469
    120 H54         3.3020   -4.2250   -1.0300 h1        1 MOL      0.071828
    121 H55         4.3820   -2.6130   -2.6090 h1        1 MOL      0.015142
    122 H56         2.4790   -0.9280   -1.4600 ho        1 MOL      0.311292
    123 H57         2.4870   -2.2470   -4.0630 hc        1 MOL      0.154807
    124 H58         2.2430   -3.8010   -3.1610 hc        1 MOL      0.154807
    125 H59         1.3090   -2.4110   -2.6910 hc        1 MOL      0.154807
    126 N11         5.7140   -3.6050   -0.5800 n         1 MOL     -0.591264
    127 C39         7.1160   -3.2060   -0.0910 c3        1 MOL      0.156653
    128 C40         7.3970   -1.6240   -0.1400 c         1 MOL      0.163571
    129 O19         8.0390   -1.1150    0.7490 o         1 MOL     -0.406523
    130 C41         8.1960   -3.9580   -0.8460 c3        1 MOL      0.426186
    131 C42         9.5160   -3.7870   -0.0570 c3        1 MOL     -0.338102
    132 O20         7.9480   -5.3880   -0.8870 oh        1 MOL     -0.589300
    133 H60         5.5730   -4.1780   -1.4040 hn        1 MOL      0.294264
    134 H61         7.2700   -3.3800    0.9750 h1        1 MOL      0.097670
    135 H62         8.2540   -3.5130   -1.8340 h1        1 MOL     -0.079585
    136 H63         7.6880   -5.5860   -1.7920 ho        1 MOL      0.373476
    137 H64        10.1920   -4.5950   -0.3160 hc        1 MOL      0.096729
    138 H65        10.0180   -2.8390   -0.2950 hc        1 MOL      0.096729
    139 H66         9.2920   -3.7960    1.0090 hc        1 MOL      0.096729
    140 N12         7.0300   -0.9440   -1.2650 n         1 MOL     -0.055313
    141 C43         7.1750    0.5000   -1.4310 c3        1 MOL     -0.340015
    142 C44         6.3950    1.3230   -0.3560 c         1 MOL      0.486528
    143 O21         6.8740    2.3110    0.1090 o         1 MOL     -0.506780
    144 C45         6.7050    0.8330   -2.8150 c3        1 MOL     -0.030770
    145 C46         7.0200    2.3050   -3.1280 c3        1 MOL     -0.058642
    146 C47         6.5110    2.7900   -4.4920 c3        1 MOL     -0.011758
    147 C48         7.4800    3.3610   -5.5640 c3        1 MOL     -0.037984
    148 N13         8.1590    4.5650   -4.9900 n4        1 MOL     -0.301025
    149 H67         6.7900   -1.4540   -2.0970 hn        1 MOL      0.205222
    150 H68         8.1870    0.8080   -1.1600 h1        1 MOL      0.157651
    151 H69         5.6260    0.7190   -2.7050 hc        1 MOL      0.051524
    152 H70         7.0420    0.0910   -3.5430 hc        1 MOL      0.051524
    153 H71         8.1040    2.3650   -3.0290 hc        1 MOL      0.043696
    154 H72         6.5670    2.9310   -2.3620 hc        1 MOL      0.043696
    155 H73         5.8560    3.6190   -4.2240 hc        1 MOL      0.054221
    156 H74         5.9020    2.0130   -4.9530 hc        1 MOL      0.054221
    157 H75         6.9530    3.4920   -6.5060 hx        1 MOL      0.101755
    158 H76         8.1520    2.5400   -5.8060 hx        1 MOL      0.101755
    159 H77         8.7980    4.8640   -5.7090 hn        1 MOL      0.290042
    160 H78         7.5240    5.3330   -4.8190 hn        1 MOL      0.290042
    161 H79         8.8040    4.4310   -4.2290 hn        1 MOL      0.290042
    162 N14         5.1490    0.8840   -0.0350 n         1 MOL     -0.000795
    163 C49         4.3020    1.4940    1.0110 c3        1 MOL     -0.063051
    164 C50         4.8510    1.3600    2.3980 c         1 MOL      0.368994
    165 O22         5.0580    2.3800    3.0740 o         1 MOL     -0.533569
    166 C51         2.8610    0.9650    0.8280 c3        1 MOL     -0.014990
    167 C52         2.0980    1.4840   -0.3990 c3        1 MOL      0.179038
    168 C53         0.6410    0.8090   -0.5230 c         1 MOL      0.740112
    169 O23         0.4390   -0.4450   -0.5500 o         1 MOL     -0.733350
    170 O24        -0.3090    1.5660   -0.7440 o         1 MOL     -0.733350
    171 H80         4.8480    0.0100   -0.4490 hn        1 MOL     -0.021763
    172 H81         4.2800    2.5490    0.7230 h1        1 MOL      0.056174
    173 H82         2.2030    1.0040    1.6960 hc        1 MOL      0.010243
    174 H83         2.9430   -0.1240    0.7210 hc        1 MOL      0.010243
    175 H84         2.7020    1.2200   -1.2630 hc        1 MOL     -0.071139
    176 H85         1.9920    2.5680   -0.4580 hc        1 MOL     -0.071139
    177 N15         5.3450    0.1620    2.7490 n         1 MOL     -0.050889
    178 C54         6.0950   -0.0760    3.9820 c3        1 MOL     -0.186113
    179 H86         5.4200   -0.4590    4.7490 h1        1 MOL      0.083454
    180 H87         6.8820   -0.8070    3.7950 h1        1 MOL      0.083454
    181 H88         6.5400    0.8580    4.3240 h1        1 MOL      0.083454
    182 H89         5.1240   -0.6280    2.1490 hn        1 MOL      0.151341
    183 Ca1        -2.1400   -0.2200   -1.5100 Ca        1 MOL      1.777143
    184 O25        -0.7840    0.4160   -3.6240 oh        1 MOL     -0.912547
    185 H90        -1.3700    1.0170   -4.0820 ho        1 MOL      0.420617
    186 H91        -0.1030    0.2130   -4.2700 ho        1 MOL      0.420617
    187 O26        -2.3700   -2.3220   -3.1110 oh        1 MOL     -0.912547
    188 H92        -2.1490   -3.2250   -3.3400 ho        1 MOL      0.420617
    189 H93        -3.3140   -2.2760   -3.2170 ho        1 MOL      0.420617
@<TRIPOS>BOND
     1    1    2 1   
     2    1    4 1   
     3    1    5 1   
     4    1    6 1   
     5    2    3 2   
     6    2    7 1   
     7    7    8 1   
     8    7   15 1   
     9    8    9 1   
    10    8   11 1   
    11    8   16 1   
    12    9   10 2   
    13    9   19 1   
    14   11   12 1   
    15   11   17 1   
    16   11   18 1   
    17   12   13 1   
    18   12   14 1   
    19   19   20 1   
    20   19   28 1   
    21   20   21 1   
    22   20   23 1   
    23   20   29 1   
    24   21   22 2   
    25   21   41 1   
    26   23   24 1   
    27   23   30 1   
    28   23   31 1   
    29   24   25 1   
    30   24   32 1   
    31   24   33 1   
    32   25   26 1   
    33   25   34 1   
    34   25   35 1   
    35   26   27 1   
    36   26   36 1   
    37   26   37 1   
    38   27   38 1   
    39   27   39 1   
    40   27   40 1   
    41   41   42 1   
    42   41   49 1   
    43   42   43 1   
    44   42   45 1   
    45   42   50 1   
    46   43   44 2   
    47   43   53 1   
    48   45   46 1   
    49   45   51 1   
    50   45   52 1   
    51   46   47 1   
    52   46   48 1   
    53   53   54 1   
    54   53   57 1   
    55   54   55 1   
    56   54   58 1   
    57   54   59 1   
    58   55   56 2   
    59   55   60 1   
    60   60   61 1   
    61   60   68 1   
    62   61   62 1   
    63   61   64 1   
    64   61   69 1   
    65   62   63 2   
    66   62   72 1   
    67   64   65 1   
    68   64   70 1   
    69   64   71 1   
    70   65   66 1   
    71   65   67 1   
    72   72   73 1   
    73   72   76 1   
    74   73   74 1   
    75   73   77 1   
    76   73   78 1   
    77   74   75 2   
    78   74   79 1   
    79   79   80 1   
    80   79   86 1   
    81   80   81 1   
    82   80   83 1   
    83   80   87 1   
    84   81   82 2   
    85   81   93 1   
    86   83   84 1   
    87   83   85 1   
    88   83   88 1   
    89   84   90 1   
    90   84   91 1   
    91   84   92 1   
    92   85   89 1   
    93   93   94 1   
    94   93  101 1   
    95   94   95 1   
    96   94   97 1   
    97   94  102 1   
    98   95   96 2   
    99   95  112 1   
   100   97   98 1   
   101   97   99 1   
   102   97  103 1   
   103   98  100 1   
   104   98  104 1   
   105   98  105 1   
   106   99  106 1   
   107   99  107 1   
   108   99  108 1   
   109  100  109 1   
   110  100  110 1   
   111  100  111 1   
   112  112  113 1   
   113  112  119 1   
   114  113  114 1   
   115  113  116 1   
   116  113  120 1   
   117  114  115 2   
   118  114  126 1   
   119  116  117 1   
   120  116  118 1   
   121  116  121 1   
   122  117  123 1   
   123  117  124 1   
   124  117  125 1   
   125  118  122 1   
   126  126  127 1   
   127  126  133 1   
   128  127  128 1   
   129  127  130 1   
   130  127  134 1   
   131  128  129 2   
   132  128  140 1   
   133  130  131 1   
   134  130  132 1   
   135  130  135 1   
   136  131  137 1   
   137  131  138 1   
   138  131  139 1   
   139  132  136 1   
   140  140  141 1   
   141  140  149 1   
   142  141  142 1   
   143  141  144 1   
   144  141  150 1   
   145  142  143 2   
   146  142  162 1   
   147  144  145 1   
   148  144  151 1   
   149  144  152 1   
   150  145  146 1   
   151  145  153 1   
   152  145  154 1   
   153  146  147 1   
   154  146  155 1   
   155  146  156 1   
   156  147  148 1   
   157  147  157 1   
   158  147  158 1   
   159  148  159 1   
   160  148  160 1   
   161  148  161 1   
   162  162  163 1   
   163  162  171 1   
   164  163  164 1   
   165  163  166 1   
   166  163  172 1   
   167  164  165 2   
   168  164  177 1   
   169  166  167 1   
   170  166  173 1   
   171  166  174 1   
   172  167  168 1   
   173  167  175 1   
   174  167  176 1   
   175  168  169 1   
   176  168  170 1   
   177  177  178 1   
   178  177  182 1   
   179  178  179 1   
   180  178  180 1   
   181  178  181 1   
   182  184  185 1   
   183  184  186 1   
   184  187  188 1   
   185  187  189 1   
@<TRIPOS>SUBSTRUCTURE
     1 MOL         1 TEMP              0 ****  ****    0 ROOT
