@<TRIPOS>MOLECULE
MOL
  179   176     1     0     0
SMALL
resp


@<TRIPOS>ATOM
      1 C1          2.2650    1.9480    5.6090 c3        1 MOL     -0.337667
      2 C2          1.5880    1.9390    4.2440 c         1 MOL      0.739991
      3 O1          2.2410    1.9230    3.2070 o         1 MOL     -0.595993
      4 H1          2.6200    0.9450    5.8450 hc        1 MOL      0.087775
      5 H2          3.1100    2.6370    5.5920 hc        1 MOL      0.087775
      6 H3          1.5510    2.2670    6.3680 hc        1 MOL      0.087775
      7 N1          0.2460    2.1910    4.1820 n         1 MOL     -0.590488
      8 C3         -0.6470    2.2000    3.0120 c3        1 MOL      0.099406
      9 C4         -0.9160    3.5260    2.2800 c         1 MOL      0.537018
     10 O2         -1.6860    4.3470    2.8800 o         1 MOL     -0.559629
     11 C5         -1.8510    1.3100    3.3830 c3        1 MOL      0.063281
     12 C6         -2.6710    1.0970    2.1370 c         1 MOL      0.663212
     13 O3         -3.8310    0.6360    2.2630 o         1 MOL     -0.741970
     14 O4         -2.1810    1.3680    0.9910 o         1 MOL     -0.741970
     15 H4         -0.1330    2.3350    5.1100 hn        1 MOL      0.306449
     16 H5         -0.1480    1.5540    2.2920 h1        1 MOL     -0.113349
     17 H6         -2.4360    1.8970    4.0940 hc        1 MOL      0.001313
     18 H7         -1.5190    0.4360    3.9290 hc        1 MOL      0.001313
     19 N2         -0.3850    3.7220    1.0940 n         1 MOL     -0.140204
     20 C7         -0.1620    5.0160    0.5520 c3        1 MOL     -0.438679
     21 C8         -1.2520    5.5890   -0.3420 c         1 MOL      0.671232
     22 O5         -1.2030    6.7450   -0.6660 o         1 MOL     -0.587480
     23 C9          1.1840    4.8290   -0.2360 c3        1 MOL      0.225089
     24 C10         1.9260    6.2140   -0.4180 c3        1 MOL     -0.277966
     25 C11         3.2880    6.0130   -0.9850 c3        1 MOL      0.067902
     26 C12         3.9540    7.3350   -1.2540 c3        1 MOL     -0.041543
     27 N3          5.0840    7.0880   -2.1320 n4        1 MOL     -0.352176
     28 H8          0.1440    2.9630    0.6940 hn        1 MOL      0.211862
     29 H9          0.0710    5.6590    1.3920 h1        1 MOL      0.184554
     30 H10         1.0330    4.3840   -1.2150 hc        1 MOL      0.021532
     31 H11         1.9330    4.2090    0.2590 hc        1 MOL      0.021532
     32 H12         2.0030    6.6500    0.5820 hc        1 MOL      0.078910
     33 H13         1.4050    6.8950   -1.0910 hc        1 MOL      0.078910
     34 H14         3.2140    5.3800   -1.8680 hc        1 MOL      0.027706
     35 H15         3.8240    5.4210   -0.2320 hc        1 MOL      0.027706
     36 H16         4.2610    7.7280   -0.2910 hx        1 MOL      0.114635
     37 H17         3.1840    7.9480   -1.7360 hx        1 MOL      0.114635
     38 H18         4.6340    6.8720   -3.0050 hn        1 MOL      0.328123
     39 H19         5.7340    7.8550   -2.1270 hn        1 MOL      0.328123
     40 H20         5.6180    6.2880   -1.8440 hn        1 MOL      0.328123
     41 N4         -2.2510    4.8030   -0.7460 n         1 MOL     -0.365669
     42 C13        -3.5110    5.3020   -1.2370 c3        1 MOL      0.048667
     43 C14        -4.6410    4.8020   -0.3570 c         1 MOL      0.422105
     44 O6         -5.8040    5.1720   -0.6150 o         1 MOL     -0.518813
     45 C15        -3.6810    4.8820   -2.6650 c3        1 MOL     -0.238596
     46 C16        -3.5900    3.3500   -2.8030 c         1 MOL      0.786618
     47 O7         -3.8880    2.8690   -3.8940 o         1 MOL     -0.721261
     48 O8         -3.2450    2.6430   -1.8620 o         1 MOL     -0.721261
     49 H21        -2.1200    3.8030   -0.6380 hn        1 MOL      0.165700
     50 H22        -3.4000    6.3850   -1.2670 h1        1 MOL      0.104469
     51 H23        -2.9680    5.3630   -3.3260 hc        1 MOL      0.062688
     52 H24        -4.6760    5.1360   -3.0590 hc        1 MOL      0.062688
     53 N5         -4.3110    4.0920    0.7670 n         1 MOL     -0.215299
     54 C17        -5.3240    3.5110    1.6000 c3        1 MOL     -0.106593
     55 C18        -6.0800    2.3210    1.0890 c         1 MOL      0.514952
     56 O9         -7.0210    1.8750    1.7950 o         1 MOL     -0.582914
     57 H25        -3.3620    3.9100    1.0450 hn        1 MOL      0.148294
     58 H26        -6.0260    4.2480    1.9920 h1        1 MOL      0.106906
     59 H27        -4.8190    3.2690    2.5410 h1        1 MOL      0.106906
     60 N6         -5.6610    1.5750   -0.0020 n         1 MOL     -0.267719
     61 C19        -6.5740    0.6430   -0.6780 c3        1 MOL     -0.087323
     62 C20        -6.6200   -0.7530    0.0470 c         1 MOL      0.258456
     63 O10        -7.2630   -1.6500   -0.4780 o         1 MOL     -0.473813
     64 C21        -6.2420    0.5580   -2.1270 c3        1 MOL     -0.273440
     65 C22        -5.0220   -0.3450   -2.4630 c         1 MOL      0.733642
     66 N7         -5.1560   -1.2620   -3.3630 n         1 MOL     -0.699648
     67 O11        -3.9050   -0.2120   -1.9520 o         1 MOL     -0.710144
     68 H28        -4.8420    1.8920   -0.5080 hn        1 MOL      0.205190
     69 H29        -7.5920    1.0440   -0.6750 h1        1 MOL      0.173701
     70 H30        -6.0170    1.5180   -2.5960 hc        1 MOL      0.123513
     71 H31        -7.0870    0.3520   -2.7860 hc        1 MOL      0.123513
     72 H32        -6.0420   -1.3300   -3.8520 hn        1 MOL      0.342668
     73 H33        -4.4340   -1.9650   -3.4180 hn        1 MOL      0.342668
     74 N8         -5.9900   -0.9790    1.1840 n         1 MOL     -0.013985
     75 C23        -6.0540   -2.2300    2.0230 c3        1 MOL     -0.364947
     76 C24        -4.9210   -3.2060    1.8640 c         1 MOL      0.635038
     77 O12        -5.0290   -4.3580    2.2470 o         1 MOL     -0.544670
     78 H34        -5.3570   -0.2440    1.4850 hn        1 MOL      0.286018
     79 H35        -6.9680   -2.7690    1.7370 h1        1 MOL      0.158143
     80 H36        -6.0970   -1.9850    3.0810 h1        1 MOL      0.158143
     81 N9         -3.8720   -2.8370    1.0880 n         1 MOL     -0.472638
     82 C25        -2.8170   -3.7390    0.5820 c3        1 MOL      0.127702
     83 C26        -1.5250   -2.9580    0.3520 c         1 MOL      0.607201
     84 O13        -1.5260   -1.8240   -0.2750 o         1 MOL     -0.681173
     85 C27        -3.2270   -4.3510   -0.7630 c3        1 MOL      0.069458
     86 C28        -4.4070   -5.2830   -0.7310 ca        1 MOL     -0.133195
     87 C29        -5.6610   -4.7750   -1.2150 ca        1 MOL     -0.046727
     88 C30        -4.3240   -6.6240   -0.3490 ca        1 MOL     -0.046727
     89 C31        -6.7530   -5.6010   -1.1450 ca        1 MOL     -0.314204
     90 C32        -5.3820   -7.4790   -0.4260 ca        1 MOL     -0.314204
     91 C33        -6.6650   -6.9630   -0.7410 ca        1 MOL      0.410643
     92 O14        -7.7670   -7.7420   -0.7360 oh        1 MOL     -0.492188
     93 H37        -3.9470   -1.8960    0.7140 hn        1 MOL      0.284475
     94 H38        -2.6550   -4.5110    1.3360 h1        1 MOL      0.055814
     95 H39        -2.4320   -4.9830   -1.1730 hc        1 MOL      0.006746
     96 H40        -3.4560   -3.6250   -1.5440 hc        1 MOL      0.006746
     97 H41        -5.7750   -3.7570   -1.5620 ha        1 MOL      0.099255
     98 H42        -3.3510   -7.0220   -0.1010 ha        1 MOL      0.099255
     99 H43        -7.7390   -5.2530   -1.4090 ha        1 MOL      0.142304
    100 H44        -5.2200   -8.5420   -0.3160 ha        1 MOL      0.142304
    101 H45        -7.5830   -8.6390   -0.4440 ho        1 MOL      0.361437
    102 N10        -0.3350   -3.4500    0.8940 n         1 MOL     -0.541302
    103 C34         1.0090   -2.9360    0.6350 c3        1 MOL     -0.019816
    104 C35         2.1420   -3.9240    0.1700 c         1 MOL      0.624890
    105 O15         1.9710   -5.1010    0.2920 o         1 MOL     -0.552202
    106 C36         1.5240   -2.2140    1.9200 c3        1 MOL      0.050813
    107 C37         1.6780   -3.3490    3.0710 c3        1 MOL     -0.165860
    108 C38         0.6520   -1.1000    2.4170 c3        1 MOL     -0.192253
    109 C39         2.5140   -2.8250    4.2600 c3        1 MOL     -0.023146
    110 H46        -0.3860   -4.2210    1.5440 hn        1 MOL      0.299513
    111 H47         0.9600   -2.1560   -0.1230 h1        1 MOL      0.128925
    112 H48         2.5240   -1.8310    1.7290 hc        1 MOL     -0.006457
    113 H49         2.1140   -4.2740    2.6890 hc        1 MOL      0.070799
    114 H50         0.6720   -3.5980    3.4060 hc        1 MOL      0.070799
    115 H51         1.0580   -0.6370    3.3110 hc        1 MOL      0.080824
    116 H52         0.8950   -0.3170    1.7050 hc        1 MOL      0.080824
    117 H53        -0.4070   -1.3190    2.3990 hc        1 MOL      0.080824
    118 H54         2.7500   -3.6630    4.9190 hc        1 MOL      0.009001
    119 H55         3.4260   -2.3100    3.9640 hc        1 MOL      0.009001
    120 H56         1.9480   -2.0990    4.8330 hc        1 MOL      0.009001
    121 N11         3.2080   -3.3580   -0.3670 n         1 MOL     -0.391865
    122 C40         4.3370   -3.9990   -1.0470 c3        1 MOL      0.117762
    123 C41         5.6290   -3.6690   -0.2900 c         1 MOL      0.372601
    124 O16         5.7050   -2.7140    0.5340 o         1 MOL     -0.336759
    125 C42         4.3660   -3.3640   -2.4390 c3        1 MOL     -0.077410
    126 O17         4.3940   -1.9790   -2.3570 oh        1 MOL     -0.290903
    127 H57         2.9820   -2.3920   -0.5830 hn        1 MOL      0.123033
    128 H58         4.0610   -5.0500   -1.1730 h1        1 MOL      0.082755
    129 H59         3.4640   -3.6490   -2.9900 h1        1 MOL      0.064397
    130 H60         5.1790   -3.7450   -3.0640 h1        1 MOL      0.064397
    131 H61         3.8550   -1.5060   -2.9850 ho        1 MOL      0.353702
    132 N12         6.7480   -4.3390   -0.7300 n         1 MOL     -0.428723
    133 C43         8.1380   -4.0190   -0.4270 c3        1 MOL      0.134235
    134 C44         8.3940   -2.5160   -0.7210 c         1 MOL      0.549614
    135 O18         9.0620   -1.8900    0.0710 o         1 MOL     -0.526831
    136 C45         9.0920   -4.8850   -1.2390 c3        1 MOL     -0.259702
    137 H62         6.5760   -5.0420   -1.4450 hn        1 MOL      0.258202
    138 H63         8.3280   -4.1500    0.6380 h1        1 MOL      0.079112
    139 H64        10.0940   -4.7630   -0.8240 hc        1 MOL      0.083072
    140 H65         8.8570   -5.9260   -1.0430 hc        1 MOL      0.083072
    141 H66         9.1200   -4.6500   -2.2980 hc        1 MOL      0.083072
    142 N13         7.8720   -1.9910   -1.8360 n         1 MOL     -0.433815
    143 C46         8.0330   -0.5440   -2.1600 c3        1 MOL     -0.030904
    144 C47         7.2550    0.4290   -1.2320 c         1 MOL      0.382781
    145 O19         7.8560    1.4150   -0.8230 o         1 MOL     -0.500572
    146 C48         7.7800   -0.3950   -3.6420 c3        1 MOL     -0.141138
    147 H67         7.3840   -2.5910   -2.4920 hn        1 MOL      0.291539
    148 H68         9.0790   -0.2600   -2.0080 h1        1 MOL      0.140420
    149 H69         7.9120    0.6240   -4.0180 hc        1 MOL      0.045507
    150 H70         8.3750   -0.9120   -4.3870 hc        1 MOL      0.045507
    151 H71         6.7700   -0.7640   -3.8700 hc        1 MOL      0.045507
    152 N14         6.0440    0.1490   -0.7520 n         1 MOL     -0.088474
    153 C49         5.3420    1.0890    0.2680 c3        1 MOL     -0.178476
    154 C50         6.0690    0.8380    1.5970 c         1 MOL      0.344981
    155 O20         6.2430    1.8330    2.3530 o         1 MOL     -0.520759
    156 C51         3.7920    0.8170    0.3700 c3        1 MOL      0.384208
    157 C52         3.0800    1.4320   -0.8520 c3        1 MOL      0.122008
    158 C53         1.5740    1.0300   -0.9820 c         1 MOL      0.664154
    159 O21         0.6780    1.7990   -0.5570 o         1 MOL     -0.729646
    160 O22         1.1210   -0.0120   -1.5210 o         1 MOL     -0.729646
    161 H72         5.5370   -0.6840   -1.0230 hn        1 MOL     -0.030700
    162 H73         5.5760    2.1210    0.0070 h1        1 MOL      0.106601
    163 H74         3.3570    1.0840    1.3450 hc        1 MOL     -0.033444
    164 H75         3.6620   -0.2660    0.3910 hc        1 MOL     -0.033444
    165 H76         3.5490    0.9760   -1.7210 hc        1 MOL     -0.139499
    166 H77         3.1570    2.5130   -0.7500 hc        1 MOL     -0.139499
    167 N15         6.6090   -0.3490    1.8650 n         1 MOL      0.084055
    168 C54         7.5060   -0.4850    2.9980 c3        1 MOL     -0.366386
    169 H78         7.6400   -1.5410    3.2300 h1        1 MOL      0.125889
    170 H79         8.4710   -0.0420    2.7530 h1        1 MOL      0.125889
    171 H80         7.0800    0.0250    3.8630 h1        1 MOL      0.125889
    172 H81         6.3520   -1.2120    1.4100 hn        1 MOL      0.057990
    173 Ca1        -1.4250    0.5850   -1.3180 Ca        1 MOL      1.824353
    174 O23        -1.2730   -1.2560   -3.2800 oh        1 MOL     -0.836239
    175 H82        -1.9140   -1.8590   -3.6370 ho        1 MOL      0.409236
    176 H83        -0.4680   -1.4290   -3.7740 ho        1 MOL      0.409236
    177 O24        -0.3410    2.1020   -3.2790 oh        1 MOL     -0.836239
    178 H84        -0.7380    2.4800   -4.0590 ho        1 MOL      0.409236
    179 H85         0.5790    2.3700   -3.3220 ho        1 MOL      0.409236
@<TRIPOS>BOND
     1    1    2 1   
     2    1    4 1   
     3    1    5 1   
     4    1    6 1   
     5    2    3 2   
     6    2    7 1   
     7    7    8 1   
     8    7   15 1   
     9    8    9 1   
    10    8   11 1   
    11    8   16 1   
    12    9   10 2   
    13    9   19 1   
    14   11   12 1   
    15   11   17 1   
    16   11   18 1   
    17   12   13 1   
    18   12   14 1   
    19   19   20 1   
    20   19   28 1   
    21   20   21 1   
    22   20   23 1   
    23   20   29 1   
    24   21   22 2   
    25   21   41 1   
    26   23   24 1   
    27   23   30 1   
    28   23   31 1   
    29   24   25 1   
    30   24   32 1   
    31   24   33 1   
    32   25   26 1   
    33   25   34 1   
    34   25   35 1   
    35   26   27 1   
    36   26   36 1   
    37   26   37 1   
    38   27   38 1   
    39   27   39 1   
    40   27   40 1   
    41   41   42 1   
    42   41   49 1   
    43   42   43 1   
    44   42   45 1   
    45   42   50 1   
    46   43   44 2   
    47   43   53 1   
    48   45   46 1   
    49   45   51 1   
    50   45   52 1   
    51   46   47 1   
    52   46   48 1   
    53   53   54 1   
    54   53   57 1   
    55   54   55 1   
    56   54   58 1   
    57   54   59 1   
    58   55   56 2   
    59   55   60 1   
    60   60   61 1   
    61   60   68 1   
    62   61   62 1   
    63   61   64 1   
    64   61   69 1   
    65   62   63 2   
    66   62   74 1   
    67   64   65 1   
    68   64   70 1   
    69   64   71 1   
    70   65   66 1   
    71   65   67 2   
    72   66   72 1   
    73   66   73 1   
    74   74   75 1   
    75   74   78 1   
    76   75   76 1   
    77   75   79 1   
    78   75   80 1   
    79   76   77 2   
    80   76   81 1   
    81   81   82 1   
    82   81   93 1   
    83   82   83 1   
    84   82   85 1   
    85   82   94 1   
    86   83   84 2   
    87   83  102 1   
    88   85   86 1   
    89   85   95 1   
    90   85   96 1   
    91   86   87 ar  
    92   86   88 ar  
    93   87   89 ar  
    94   87   97 1   
    95   88   90 ar  
    96   88   98 1   
    97   89   91 ar  
    98   89   99 1   
    99   90   91 ar  
   100   90  100 1   
   101   91   92 1   
   102   92  101 1   
   103  102  103 1   
   104  102  110 1   
   105  103  104 1   
   106  103  106 1   
   107  103  111 1   
   108  104  105 2   
   109  104  121 1   
   110  106  107 1   
   111  106  108 1   
   112  106  112 1   
   113  107  109 1   
   114  107  113 1   
   115  107  114 1   
   116  108  115 1   
   117  108  116 1   
   118  108  117 1   
   119  109  118 1   
   120  109  119 1   
   121  109  120 1   
   122  121  122 1   
   123  121  127 1   
   124  122  123 1   
   125  122  125 1   
   126  122  128 1   
   127  123  124 2   
   128  123  132 1   
   129  125  126 1   
   130  125  129 1   
   131  125  130 1   
   132  126  131 1   
   133  132  133 1   
   134  132  137 1   
   135  133  134 1   
   136  133  136 1   
   137  133  138 1   
   138  134  135 2   
   139  134  142 1   
   140  136  139 1   
   141  136  140 1   
   142  136  141 1   
   143  142  143 1   
   144  142  147 1   
   145  143  144 1   
   146  143  146 1   
   147  143  148 1   
   148  144  145 2   
   149  144  152 1   
   150  146  149 1   
   151  146  150 1   
   152  146  151 1   
   153  152  153 1   
   154  152  161 1   
   155  153  154 1   
   156  153  156 1   
   157  153  162 1   
   158  154  155 2   
   159  154  167 1   
   160  156  157 1   
   161  156  163 1   
   162  156  164 1   
   163  157  158 1   
   164  157  165 1   
   165  157  166 1   
   166  158  159 1   
   167  158  160 1   
   168  167  168 1   
   169  167  172 1   
   170  168  169 1   
   171  168  170 1   
   172  168  171 1   
   173  174  175 1   
   174  174  176 1   
   175  177  178 1   
   176  177  179 1   
@<TRIPOS>SUBSTRUCTURE
     1 MOL         1 TEMP              0 ****  ****    0 ROOT
