@<TRIPOS>MOLECULE
MOL
  176   174     1     0     0
SMALL
resp


@<TRIPOS>ATOM
      1 C1          1.4920    3.1890    5.9660 c3        1 MOL     -0.324108
      2 C2          1.1430    2.6680    4.5440 c         1 MOL      0.721627
      3 O1          2.0050    2.4700    3.6810 o         1 MOL     -0.604896
      4 H1          2.5520    3.4380    6.0120 hc        1 MOL      0.085819
      5 H2          0.9010    4.0800    6.1820 hc        1 MOL      0.085819
      6 H3          1.2680    2.4170    6.7020 hc        1 MOL      0.085819
      7 N1         -0.1500    2.6500    4.2020 n         1 MOL     -0.609849
      8 C3         -0.6470    2.4360    2.8400 c3        1 MOL     -0.018563
      9 C4         -0.5810    3.6890    1.9870 c         1 MOL      0.663184
     10 O2         -1.2140    4.7250    2.1740 o         1 MOL     -0.591252
     11 C5         -2.0910    1.9540    3.0500 c3        1 MOL     -0.182152
     12 C6         -2.6800    1.5970    1.6870 c         1 MOL      0.625743
     13 O3         -2.0980    1.7500    0.6270 o         1 MOL     -0.674454
     14 O4         -3.8350    1.0940    1.7430 o         1 MOL     -0.674454
     15 H4         -0.8100    2.8050    4.9510 hn        1 MOL      0.312737
     16 H5         -0.1290    1.6010    2.3670 h1        1 MOL      0.159088
     17 H6         -2.7040    2.7030    3.5540 hc        1 MOL      0.093852
     18 H7         -2.1080    1.0510    3.6600 hc        1 MOL      0.093852
     19 N2          0.1730    3.5630    0.8560 n         1 MOL     -0.430040
     20 C7          0.6880    4.7570    0.0780 c3        1 MOL      0.026164
     21 C8         -0.4910    5.5660   -0.4620 c         1 MOL      0.662003
     22 O5         -0.4200    6.7960   -0.5240 o         1 MOL     -0.648651
     23 C9          1.7430    4.3500   -0.9690 c3        1 MOL     -0.113839
     24 C10         2.3770    5.4210   -1.8010 c3        1 MOL      0.145501
     25 C11         3.5400    6.2100   -1.1530 c3        1 MOL     -0.005013
     26 C12         3.1530    7.2170   -0.0890 c3        1 MOL     -0.013636
     27 N3          2.1980    8.2790   -0.6310 n4        1 MOL     -0.462283
     28 H8          0.5610    2.6360    0.8090 hn        1 MOL      0.249813
     29 H9          1.1200    5.5010    0.7430 h1        1 MOL      0.048885
     30 H10         1.1940    3.6450   -1.5920 hc        1 MOL      0.075760
     31 H11         2.5810    3.7960   -0.5390 hc        1 MOL      0.075760
     32 H12         1.5700    6.0560   -2.1780 hc        1 MOL     -0.046173
     33 H13         2.8810    5.0660   -2.6980 hc        1 MOL     -0.046173
     34 H14         4.0040    6.8150   -1.9250 hc        1 MOL      0.037150
     35 H15         4.1850    5.5300   -0.5850 hc        1 MOL      0.037150
     36 H16         3.9550    7.7720    0.3950 hx        1 MOL      0.099802
     37 H17         2.5820    6.7030    0.6790 hx        1 MOL      0.099802
     38 H18         2.5680    8.5560   -1.5280 hn        1 MOL      0.337159
     39 H19         1.2340    7.9960   -0.7020 hn        1 MOL      0.337159
     40 H20         2.1640    9.0510    0.0070 hn        1 MOL      0.337159
     41 N4         -1.5730    4.8250   -0.6940 n         1 MOL     -0.255624
     42 C13        -2.7790    5.1110   -1.4770 c3        1 MOL      0.058706
     43 C14        -4.0970    4.8360   -0.7040 c         1 MOL      0.433258
     44 O6         -5.0680    5.5000   -0.9840 o         1 MOL     -0.544231
     45 C15        -2.5730    4.3630   -2.7920 c3        1 MOL     -0.122486
     46 C16        -2.2930    2.8610   -2.6520 c         1 MOL      0.589867
     47 O7         -3.1680    2.0490   -2.2330 o         1 MOL     -0.664228
     48 O8         -1.1120    2.4820   -2.8490 o         1 MOL     -0.664228
     49 H21        -1.2800    3.8680   -0.6920 hn        1 MOL      0.152502
     50 H22        -2.7610    6.1310   -1.8420 h1        1 MOL      0.063188
     51 H23        -1.6580    4.7650   -3.2230 hc        1 MOL      0.040720
     52 H24        -3.4120    4.5970   -3.4570 hc        1 MOL      0.040720
     53 N5         -4.1470    3.8630    0.1770 n         1 MOL     -0.083891
     54 C17        -5.4130    3.5550    0.8300 c3        1 MOL     -0.173179
     55 C18        -6.1780    2.4300    0.2980 c         1 MOL      0.554701
     56 O9         -7.1470    2.0810    1.0620 o         1 MOL     -0.582127
     57 H25        -3.3800    3.2180    0.3370 hn        1 MOL      0.049004
     58 H26        -6.0700    4.4300    0.8660 h1        1 MOL      0.114625
     59 H27        -5.2620    3.2510    1.8660 h1        1 MOL      0.114625
     60 N6         -5.8470    1.8010   -0.8130 n         1 MOL     -0.400547
     61 C19        -6.5300    0.6240   -1.2990 c3        1 MOL      0.070759
     62 C20        -6.6320   -0.5720   -0.3590 c         1 MOL      0.453922
     63 O10        -7.5770   -1.3110   -0.5230 o         1 MOL     -0.583497
     64 C21        -6.0770    0.2480   -2.7380 c3        1 MOL     -0.261972
     65 C22        -4.7310   -0.5170   -2.8210 c         1 MOL      0.736785
     66 N7         -4.3140   -0.9590   -3.9610 n         1 MOL     -0.818551
     67 O11        -4.0820   -0.7750   -1.7980 o         1 MOL     -0.671682
     68 H28        -4.9920    2.0660   -1.2730 hn        1 MOL      0.263385
     69 H29        -7.5830    0.8420   -1.4660 h1        1 MOL      0.094643
     70 H30        -5.9890    1.1380   -3.3540 hc        1 MOL      0.096670
     71 H31        -6.8560   -0.3950   -3.1450 hc        1 MOL      0.096670
     72 H32        -4.8040   -0.7420   -4.8190 hn        1 MOL      0.373645
     73 H33        -3.4940   -1.5420   -3.9530 hn        1 MOL      0.373645
     74 N8         -5.7740   -0.7830    0.7000 n         1 MOL     -0.044812
     75 C23        -6.1260   -1.9150    1.6450 c3        1 MOL     -0.276085
     76 C24        -4.9660   -2.8860    1.7090 c         1 MOL      0.546282
     77 O12        -4.9390   -3.8150    2.5010 o         1 MOL     -0.541960
     78 H34        -4.9370   -0.2250    0.8180 hn        1 MOL      0.186717
     79 H35        -7.0490   -2.4560    1.4520 h1        1 MOL      0.147789
     80 H36        -6.3290   -1.4300    2.5910 h1        1 MOL      0.147789
     81 N9         -3.9350   -2.6960    0.9090 n         1 MOL     -0.368879
     82 C25        -2.9170   -3.6800    0.7910 c3        1 MOL      0.149217
     83 C26        -1.5530   -3.0130    0.4820 c         1 MOL      0.477494
     84 O13        -1.5410   -2.0230   -0.2610 o         1 MOL     -0.619238
     85 C27        -3.2510   -4.7580   -0.2860 c3        1 MOL      0.314792
     86 C28        -4.6630   -5.2940   -0.3080 ca        1 MOL     -0.192071
     87 C29        -4.9730   -6.3430    0.5450 ca        1 MOL     -0.074238
     88 C30        -5.6620   -4.6470   -1.0570 ca        1 MOL     -0.074238
     89 C31        -6.2880   -6.7380    0.7340 ca        1 MOL     -0.317498
     90 C32        -7.0580   -5.1100   -1.0120 ca        1 MOL     -0.317498
     91 C33        -7.3470   -6.1200   -0.0630 ca        1 MOL      0.390658
     92 O14        -8.5920   -6.6530    0.0490 oh        1 MOL     -0.499273
     93 H37        -3.9830   -2.0460    0.1470 hn        1 MOL      0.176999
     94 H38        -2.7320   -4.3600    1.6130 h1        1 MOL      0.023907
     95 H39        -2.5680   -5.5860   -0.1270 hc        1 MOL     -0.061140
     96 H40        -2.9560   -4.5250   -1.3110 hc        1 MOL     -0.061140
     97 H41        -4.2620   -6.8830    1.1500 ha        1 MOL      0.132010
     98 H42        -5.4440   -3.8910   -1.7890 ha        1 MOL      0.132010
     99 H43        -6.5840   -7.4860    1.4520 ha        1 MOL      0.171679
    100 H44        -7.8460   -4.6920   -1.6210 ha        1 MOL      0.171679
    101 H45        -9.2070   -6.1750   -0.5070 ho        1 MOL      0.364154
    102 N10        -0.4380   -3.5310    0.9980 n         1 MOL     -0.443010
    103 C34         0.9120   -2.9470    0.8910 c3        1 MOL     -0.018124
    104 C35         1.9550   -4.0340    0.4480 c         1 MOL      0.426144
    105 O15         1.7510   -5.2290    0.5800 o         1 MOL     -0.541791
    106 C36         1.3360   -2.0770    2.1160 c3        1 MOL     -0.020485
    107 C37         1.7530   -3.1050    3.2020 c3        1 MOL      0.173848
    108 C38         0.1840   -1.1840    2.6080 c3        1 MOL     -0.040405
    109 C39         2.1120   -2.5630    4.5700 c3        1 MOL     -0.309595
    110 H46        -0.5430   -4.3720    1.5530 hn        1 MOL      0.284618
    111 H47         0.7950   -2.3080    0.0170 h1        1 MOL      0.181691
    112 H48         2.2080   -1.4510    1.9490 hc        1 MOL      0.055808
    113 H49         2.6890   -3.5660    2.8850 hc        1 MOL     -0.008764
    114 H50         1.0430   -3.9250    3.3160 hc        1 MOL     -0.008764
    115 H51         0.5590   -0.6710    3.5000 hc        1 MOL      0.014888
    116 H52        -0.0090   -0.4930    1.7910 hc        1 MOL      0.014888
    117 H53        -0.6660   -1.8140    2.8640 hc        1 MOL      0.014888
    118 H54         1.1720   -2.3120    5.0630 hc        1 MOL      0.070228
    119 H55         2.6190   -3.3720    5.0950 hc        1 MOL      0.070228
    120 H56         2.8910   -1.8140    4.4090 hc        1 MOL      0.070228
    121 N11         3.0880   -3.6300   -0.1320 n         1 MOL     -0.166134
    122 C40         4.1610   -4.4090   -0.7250 c3        1 MOL      0.059630
    123 C41         5.5520   -3.8570   -0.2450 c         1 MOL      0.422732
    124 O16         5.5320   -2.7800    0.4440 o         1 MOL     -0.420599
    125 C42         4.0750   -4.3470   -2.2300 c3        1 MOL      0.096004
    126 O17         4.2150   -3.0220   -2.6500 oh        1 MOL     -0.544115
    127 H57         3.1530   -2.6230   -0.1880 hn        1 MOL      0.098134
    128 H58         4.2110   -5.4760   -0.5040 h1        1 MOL      0.057619
    129 H59         3.2130   -4.8240   -2.6750 h1        1 MOL      0.026205
    130 H60         4.9250   -4.9220   -2.6110 h1        1 MOL      0.026205
    131 H61         4.6420   -3.0850   -3.5080 ho        1 MOL      0.394048
    132 N12         6.6610   -4.5530   -0.6700 n         1 MOL     -0.511613
    133 C43         7.9770   -4.0450   -0.3180 c3        1 MOL      0.254504
    134 C44         8.2230   -2.5540   -0.6610 c         1 MOL      0.444239
    135 O18         8.8400   -1.8720    0.1090 o         1 MOL     -0.490028
    136 C45         9.0260   -4.9230   -0.9510 c3        1 MOL     -0.316553
    137 H62         6.6000   -5.3760   -1.2550 hn        1 MOL      0.333040
    138 H63         8.1600   -4.1300    0.7440 h1        1 MOL      0.047257
    139 H64         9.9550   -4.7520   -0.3990 hc        1 MOL      0.084852
    140 H65         8.6880   -5.9440   -0.7620 hc        1 MOL      0.084852
    141 H66         9.0150   -4.8120   -2.0340 hc        1 MOL      0.084852
    142 N13         7.8300   -2.1220   -1.8850 n         1 MOL     -0.386407
    143 C46         8.0910   -0.7050   -2.2410 c3        1 MOL      0.017226
    144 C47         7.3110    0.3550   -1.3400 c         1 MOL      0.420115
    145 O19         7.8320    1.3770   -1.0320 o         1 MOL     -0.490623
    146 C48         7.7340   -0.4460   -3.7330 c3        1 MOL     -0.209328
    147 H67         7.3880   -2.7620   -2.5340 hn        1 MOL      0.269843
    148 H68         9.1490   -0.4490   -2.0990 h1        1 MOL      0.110448
    149 H69         8.2540   -1.0910   -4.4430 hc        1 MOL      0.060376
    150 H70         6.6570   -0.6290   -3.8170 hc        1 MOL      0.060376
    151 H71         8.0080    0.5690   -4.0120 hc        1 MOL      0.060376
    152 N14         6.1070    0.0270   -0.8440 n         1 MOL     -0.100494
    153 C49         5.3630    0.9680   -0.0330 c3        1 MOL     -0.173775
    154 C50         5.9060    1.0050    1.4160 c         1 MOL      0.494016
    155 O20         6.1030    2.1030    1.9520 o         1 MOL     -0.550163
    156 C51         3.8520    0.7180    0.0050 c3        1 MOL      0.164156
    157 C52         3.1190    0.3680   -1.3280 c3        1 MOL     -0.161621
    158 C53         1.6290    0.2490   -1.0230 c         1 MOL      0.853106
    159 O21         1.0060   -0.5640   -1.6820 o         1 MOL     -0.819023
    160 O22         1.0890    1.0870   -0.2640 o         1 MOL     -0.819023
    161 H72         5.7490   -0.8870   -1.0600 hn        1 MOL      0.150556
    162 H73         5.4450    1.9600   -0.4890 h1        1 MOL      0.099417
    163 H74         3.4760    1.6820    0.3570 hc        1 MOL     -0.020429
    164 H75         3.6960   -0.0560    0.7530 hc        1 MOL     -0.020429
    165 H76         3.5480   -0.6100   -1.5350 hc        1 MOL      0.011502
    166 H77         3.3860    0.9630   -2.2060 hc        1 MOL      0.011502
    167 N15         6.3920   -0.0930    1.9720 n         1 MOL     -0.122685
    168 C54         7.3050   -0.3130    3.1450 c3        1 MOL     -0.363868
    169 H78         7.2110    0.5210    3.8400 h1        1 MOL      0.145346
    170 H79         7.0300   -1.2390    3.6520 h1        1 MOL      0.145346
    171 H80         8.3350   -0.3810    2.7970 h1        1 MOL      0.145346
    172 H81         6.2140   -0.9190    1.4220 hn        1 MOL      0.122781
    173 Ca1        -1.4140    0.3660   -1.3990 Ca        1 MOL      1.766898
    174 O23        -1.2230   -0.2880   -3.9380 oh        1 MOL     -0.848570
    175 H82        -0.7840    0.2840   -4.5610 ho        1 MOL      0.421941
    176 H83        -1.3430   -1.1180   -4.4040 ho        1 MOL      0.421941
@<TRIPOS>BOND
     1    1    2 1   
     2    1    4 1   
     3    1    5 1   
     4    1    6 1   
     5    2    3 2   
     6    2    7 1   
     7    7    8 1   
     8    7   15 1   
     9    8    9 1   
    10    8   11 1   
    11    8   16 1   
    12    9   10 2   
    13    9   19 1   
    14   11   12 1   
    15   11   17 1   
    16   11   18 1   
    17   12   13 1   
    18   12   14 1   
    19   19   20 1   
    20   19   28 1   
    21   20   21 1   
    22   20   23 1   
    23   20   29 1   
    24   21   22 2   
    25   21   41 1   
    26   23   24 1   
    27   23   30 1   
    28   23   31 1   
    29   24   25 1   
    30   24   32 1   
    31   24   33 1   
    32   25   26 1   
    33   25   34 1   
    34   25   35 1   
    35   26   27 1   
    36   26   36 1   
    37   26   37 1   
    38   27   38 1   
    39   27   39 1   
    40   27   40 1   
    41   41   42 1   
    42   41   49 1   
    43   42   43 1   
    44   42   45 1   
    45   42   50 1   
    46   43   44 2   
    47   43   53 1   
    48   45   46 1   
    49   45   51 1   
    50   45   52 1   
    51   46   47 1   
    52   46   48 1   
    53   53   54 1   
    54   53   57 1   
    55   54   55 1   
    56   54   58 1   
    57   54   59 1   
    58   55   56 2   
    59   55   60 1   
    60   60   61 1   
    61   60   68 1   
    62   61   62 1   
    63   61   64 1   
    64   61   69 1   
    65   62   63 2   
    66   62   74 1   
    67   64   65 1   
    68   64   70 1   
    69   64   71 1   
    70   65   66 1   
    71   65   67 2   
    72   66   72 1   
    73   66   73 1   
    74   74   75 1   
    75   74   78 1   
    76   75   76 1   
    77   75   79 1   
    78   75   80 1   
    79   76   77 2   
    80   76   81 1   
    81   81   82 1   
    82   81   93 1   
    83   82   83 1   
    84   82   85 1   
    85   82   94 1   
    86   83   84 2   
    87   83  102 1   
    88   85   86 1   
    89   85   95 1   
    90   85   96 1   
    91   86   87 ar  
    92   86   88 ar  
    93   87   89 ar  
    94   87   97 1   
    95   88   90 ar  
    96   88   98 1   
    97   89   91 ar  
    98   89   99 1   
    99   90   91 ar  
   100   90  100 1   
   101   91   92 1   
   102   92  101 1   
   103  102  103 1   
   104  102  110 1   
   105  103  104 1   
   106  103  106 1   
   107  103  111 1   
   108  104  105 2   
   109  104  121 1   
   110  106  107 1   
   111  106  108 1   
   112  106  112 1   
   113  107  109 1   
   114  107  113 1   
   115  107  114 1   
   116  108  115 1   
   117  108  116 1   
   118  108  117 1   
   119  109  118 1   
   120  109  119 1   
   121  109  120 1   
   122  121  122 1   
   123  121  127 1   
   124  122  123 1   
   125  122  125 1   
   126  122  128 1   
   127  123  124 2   
   128  123  132 1   
   129  125  126 1   
   130  125  129 1   
   131  125  130 1   
   132  126  131 1   
   133  132  133 1   
   134  132  137 1   
   135  133  134 1   
   136  133  136 1   
   137  133  138 1   
   138  134  135 2   
   139  134  142 1   
   140  136  139 1   
   141  136  140 1   
   142  136  141 1   
   143  142  143 1   
   144  142  147 1   
   145  143  144 1   
   146  143  146 1   
   147  143  148 1   
   148  144  145 2   
   149  144  152 1   
   150  146  149 1   
   151  146  150 1   
   152  146  151 1   
   153  152  153 1   
   154  152  161 1   
   155  153  154 1   
   156  153  156 1   
   157  153  162 1   
   158  154  155 2   
   159  154  167 1   
   160  156  157 1   
   161  156  163 1   
   162  156  164 1   
   163  157  158 1   
   164  157  165 1   
   165  157  166 1   
   166  158  159 1   
   167  158  160 1   
   168  167  168 1   
   169  167  172 1   
   170  168  169 1   
   171  168  170 1   
   172  168  171 1   
   173  174  175 1   
   174  174  176 1   
@<TRIPOS>SUBSTRUCTURE
     1 MOL         1 TEMP              0 ****  ****    0 ROOT
