@<TRIPOS>MOLECULE
MOL
  189   185     1     0     0
SMALL
resp


@<TRIPOS>ATOM
      1 C1          0.6440   -2.6620    5.9520 c3        1 MOL     -0.475894
      2 C2          1.0050   -2.5200    4.4540 c         1 MOL      0.822499
      3 O1          0.8770   -1.4180    3.9510 o         1 MOL     -0.534019
      4 H1         -0.2320   -2.0520    6.1740 hc        1 MOL      0.118984
      5 H2          0.4250   -3.7060    6.1760 hc        1 MOL      0.118984
      6 H3          1.4830   -2.3270    6.5620 hc        1 MOL      0.118984
      7 N1          1.6130   -3.5540    3.8930 n         1 MOL     -0.757585
      8 C3          2.3460   -3.4410    2.6280 c3        1 MOL      0.462560
      9 C4          2.3480   -4.7400    1.8380 c         1 MOL      0.458504
     10 O2          2.4280   -5.7870    2.4120 o         1 MOL     -0.603016
     11 C5          3.7330   -2.9550    2.9620 c3        1 MOL     -0.195019
     12 C6          4.5010   -2.4490    1.7520 c         1 MOL      0.654118
     13 O3          3.9020   -1.9440    0.7930 o         1 MOL     -0.670748
     14 O4          5.7390   -2.2800    1.8460 o         1 MOL     -0.670748
     15 H4          1.7130   -4.3910    4.4460 hn        1 MOL      0.341330
     16 H5          1.8230   -2.7050    2.0140 h1        1 MOL     -0.032155
     17 H6          4.3270   -3.7560    3.4070 hc        1 MOL      0.023284
     18 H7          3.5090   -2.2560    3.7670 hc        1 MOL      0.023284
     19 N2          2.3890   -4.6040    0.5090 n         1 MOL     -0.112142
     20 C7          2.4610   -5.6960   -0.5360 c3        1 MOL     -0.011399
     21 C8          3.5630   -5.3310   -1.5180 c         1 MOL      0.472151
     22 O5          4.4690   -5.9980   -1.7260 o         1 MOL     -0.542911
     23 C9          1.1370   -5.8340   -1.3450 c3        1 MOL      0.222161
     24 C10         0.1740   -6.4320   -0.2530 c3        1 MOL      0.004344
     25 C11         1.0770   -6.6920   -2.6160 c3        1 MOL     -0.275748
     26 C12        -1.3130   -6.4770   -0.8110 c3        1 MOL     -0.185718
     27 H8          2.1560   -3.6380    0.3390 hn        1 MOL     -0.086370
     28 H9          2.7210   -6.6560   -0.1100 h1        1 MOL      0.057138
     29 H10         0.7500   -4.8370   -1.5700 hc        1 MOL     -0.002649
     30 H11         0.0440   -5.8020    0.6300 hc        1 MOL     -0.006386
     31 H12         0.4820   -7.4080    0.1150 hc        1 MOL     -0.006386
     32 H13         1.2420   -7.7320   -2.3470 hc        1 MOL      0.057002
     33 H14         0.2300   -6.5890   -3.3050 hc        1 MOL      0.057002
     34 H15         1.9350   -6.4070   -3.2370 hc        1 MOL      0.057002
     35 H16        -2.0180   -6.5300    0.0200 hc        1 MOL      0.040852
     36 H17        -1.5720   -5.5160   -1.2520 hc        1 MOL      0.040852
     37 H18        -1.4730   -7.3040   -1.5100 hc        1 MOL      0.040852
     38 N3          3.4040   -4.1460   -2.1190 n         1 MOL     -0.352829
     39 C13         4.0860   -3.6550   -3.2810 c3        1 MOL      0.160504
     40 C14         5.3410   -2.8550   -2.9930 c         1 MOL      0.364178
     41 O6          6.3160   -2.8970   -3.7760 o         1 MOL     -0.589447
     42 C15         3.0850   -2.7530   -4.0650 c3        1 MOL     -0.361370
     43 C16         2.4350   -1.6080   -3.3010 c         1 MOL      0.717182
     44 O7          2.8970   -1.2740   -2.1690 o         1 MOL     -0.644017
     45 O8          1.3890   -1.1310   -3.7170 o         1 MOL     -0.644017
     46 H19         2.6260   -3.5710   -1.8140 hn        1 MOL      0.339456
     47 H20         4.3710   -4.4080   -4.0200 h1        1 MOL      0.051401
     48 H21         2.2790   -3.4030   -4.3920 hc        1 MOL      0.083526
     49 H22         3.5910   -2.3670   -4.9610 hc        1 MOL      0.083526
     50 N4          5.5150   -2.2670   -1.8080 n         1 MOL     -0.032006
     51 C17         6.7340   -1.5950   -1.4340 c3        1 MOL     -0.273857
     52 C18         7.0350   -0.2270   -2.0150 c         1 MOL      0.525777
     53 O9          8.1570    0.2520   -1.8250 o         1 MOL     -0.618339
     54 H23         4.7120   -2.2060   -1.1930 hn        1 MOL      0.073335
     55 H24         7.6010   -2.1850   -1.7270 h1        1 MOL      0.124772
     56 H25         6.8210   -1.6060   -0.3540 h1        1 MOL      0.124772
     57 N5          6.0620    0.5560   -2.5200 n         1 MOL     -0.243452
     58 C19         6.1960    1.9810   -2.9950 c3        1 MOL     -0.036407
     59 C20         6.5520    2.9920   -1.9430 c         1 MOL      0.474708
     60 O10         6.9550    4.0790   -2.3180 o         1 MOL     -0.597569
     61 C21         4.8310    2.3300   -3.5760 c3        1 MOL     -0.238098
     62 C22         3.6820    2.3110   -2.6230 c         1 MOL      0.820561
     63 O11         3.8190    1.8090   -1.5160 o         1 MOL     -0.759981
     64 O12         2.5830    2.7420   -3.0580 o         1 MOL     -0.759981
     65 H26         5.1520    0.1150   -2.5840 hn        1 MOL      0.181491
     66 H27         6.9380    1.8450   -3.7820 h1        1 MOL      0.094226
     67 H28         4.6490    1.5890   -4.3580 hc        1 MOL      0.067599
     68 H29         4.9980    3.2960   -4.0430 hc        1 MOL      0.067599
     69 N6          6.3170    2.8560   -0.6640 n         1 MOL     -0.152343
     70 C23         6.7600    3.7910    0.4310 c3        1 MOL      0.011745
     71 C24         5.5230    4.3870    1.2140 c         1 MOL      0.518633
     72 O13         5.7120    5.3040    1.9150 o         1 MOL     -0.568831
     73 H30         5.8450    2.0150   -0.3480 hn        1 MOL      0.161073
     74 H31         7.5340    4.5210    0.1910 h1        1 MOL      0.043099
     75 H32         7.2950    3.1820    1.1590 h1        1 MOL      0.043099
     76 N7          4.2750    3.9720    0.9730 n         1 MOL     -0.403019
     77 C25         3.0380    4.4960    1.4930 c3        1 MOL     -0.059637
     78 C26         2.0180    3.3180    1.6570 c         1 MOL      0.623711
     79 O14         1.9120    2.4750    0.7860 o         1 MOL     -0.621642
     80 C27         2.4160    5.5190    0.5660 c3        1 MOL     -0.139982
     81 C28         3.1000    6.8770    0.5760 c3        1 MOL     -0.195836
     82 C29         2.2600    7.9120   -0.1080 c         1 MOL      0.665365
     83 N8          2.0650    7.7890   -1.3800 n         1 MOL     -0.795700
     84 O15         1.8660    8.8700    0.4880 o         1 MOL     -0.598174
     85 H33         4.1530    3.2130    0.3110 hn        1 MOL      0.286880
     86 H34         3.1300    5.0110    2.4430 h1        1 MOL      0.084508
     87 H35         1.3470    5.6070    0.7630 hc        1 MOL      0.094148
     88 H36         2.5400    5.1360   -0.4540 hc        1 MOL      0.094148
     89 H37         4.0670    6.9400    0.0820 hc        1 MOL      0.096288
     90 H38         3.2210    7.1950    1.6120 hc        1 MOL      0.096288
     91 H39         2.3170    6.9240   -1.8460 hn        1 MOL      0.360859
     92 H40         1.3930    8.4030   -1.8090 hn        1 MOL      0.360859
     93 N9          1.2060    3.4280    2.7030 n         1 MOL     -0.562068
     94 C30         0.0500    2.5160    2.9580 c3        1 MOL      0.166100
     95 C31        -1.1120    2.9520    2.0330 c         1 MOL      0.704684
     96 O16        -1.3380    4.1780    1.9320 o         1 MOL     -0.646893
     97 C32        -0.4060    2.6440    4.4060 c3        1 MOL      0.108586
     98 C33        -1.5340    1.5250    4.6610 c3        1 MOL     -0.303257
     99 C34         0.6670    2.2880    5.4820 c3        1 MOL     -0.303257
    100 H41         1.3720    4.2380    3.2860 hn        1 MOL      0.308498
    101 H42         0.2450    1.4550    2.7840 h1        1 MOL     -0.132668
    102 H43        -0.8100    3.6560    4.5030 hc        1 MOL      0.001555
    103 H44        -1.5850    1.1770    5.6910 hc        1 MOL      0.077907
    104 H45        -2.4850    1.8750    4.2610 hc        1 MOL      0.077907
    105 H46        -1.3140    0.6470    4.0580 hc        1 MOL      0.077907
    106 H47         0.2760    2.1700    6.4920 hc        1 MOL      0.077907
    107 H48         1.1920    1.3620    5.2380 hc        1 MOL      0.077907
    108 H49         1.3810    3.1080    5.5430 hc        1 MOL      0.077907
    109 N10        -1.9490    2.1170    1.4940 n         1 MOL     -0.417887
    110 C35        -3.0760    2.4910    0.5760 c3        1 MOL      0.185610
    111 C36        -4.4350    1.8060    1.0600 c         1 MOL      0.107563
    112 O17        -4.2430    0.7580    1.7120 o         1 MOL     -0.236440
    113 C37        -2.6260    2.2510   -0.8620 c3        1 MOL     -0.079606
    114 C38        -3.5850    1.7770   -1.8400 c         1 MOL      0.653017
    115 N11        -3.7520    2.6560   -2.7940 n         1 MOL     -0.879149
    116 O18        -4.1330    0.6960   -1.7850 o         1 MOL     -0.466382
    117 H50        -1.7880    1.1240    1.5970 hn        1 MOL      0.291473
    118 H51        -3.2580    3.5570    0.6870 h1        1 MOL      0.036047
    119 H52        -1.7600    1.5890   -0.8570 hc        1 MOL      0.032249
    120 H53        -2.3530    3.2560   -1.1750 hc        1 MOL      0.032249
    121 H54        -3.3800    3.5880   -2.7230 hn        1 MOL      0.398842
    122 H55        -4.2390    2.3080   -3.6140 hn        1 MOL      0.398842
    123 N12        -5.6520    2.3320    0.7120 n         1 MOL     -0.152711
    124 C39        -6.9080    1.7040    1.0610 c3        1 MOL      0.036687
    125 C40        -7.0110    0.1680    0.7930 c         1 MOL      0.395847
    126 O19        -7.7760   -0.5310    1.5130 o         1 MOL     -0.596947
    127 C41        -8.0340    2.5230    0.4600 c3        1 MOL     -0.145627
    128 C42        -8.1860    2.6160   -1.0740 ca        1 MOL      0.060238
    129 C43        -8.9370    1.6000   -1.6810 ca        1 MOL     -0.210555
    130 C44        -7.6720    3.7120   -1.7960 ca        1 MOL     -0.210555
    131 C45        -8.9200    1.5480   -3.0870 ca        1 MOL     -0.223565
    132 C46        -7.7480    3.6820   -3.2210 ca        1 MOL     -0.223565
    133 C47        -8.3120    2.5670   -3.8810 ca        1 MOL      0.352117
    134 O20        -8.5140    2.5460   -5.2270 oh        1 MOL     -0.516132
    135 H56        -5.7450    3.1950    0.1840 hn        1 MOL      0.155271
    136 H57        -6.8720    1.7620    2.1480 h1        1 MOL      0.069298
    137 H58        -7.8350    3.5150    0.8920 hc        1 MOL      0.053118
    138 H59        -8.9040    2.2050    1.0200 hc        1 MOL      0.053118
    139 H60        -9.2950    0.7720   -1.0860 ha        1 MOL      0.156698
    140 H61        -7.1450    4.5280   -1.3100 ha        1 MOL      0.156698
    141 H62        -9.2260    0.6500   -3.5940 ha        1 MOL      0.128565
    142 H63        -7.3630    4.5370   -3.7560 ha        1 MOL      0.128565
    143 H64        -8.8330    1.6530   -5.3790 ho        1 MOL      0.394714
    144 N13        -6.2430   -0.4870   -0.0760 n         1 MOL      0.000700
    145 C48        -6.2850   -1.9740   -0.3100 c3        1 MOL     -0.175462
    146 C49        -5.4030   -2.7150    0.7110 c         1 MOL      0.421853
    147 O21        -5.5480   -3.9560    0.7800 o         1 MOL     -0.547869
    148 C50        -5.8410   -2.2390   -1.7720 c3        1 MOL      0.111224
    149 C51        -6.7680   -1.6340   -2.8500 c3        1 MOL     -0.024699
    150 C52        -6.5440   -2.0610   -4.3010 c         1 MOL      0.599204
    151 O22        -6.8260   -1.1400   -5.1160 o         1 MOL     -0.700951
    152 O23        -6.1340   -3.2300   -4.5220 o         1 MOL     -0.700951
    153 H65        -5.6380    0.0740   -0.6690 hn        1 MOL      0.100118
    154 H66        -7.2880   -2.3770   -0.1570 h1        1 MOL      0.131304
    155 H67        -5.9920   -3.2990   -1.9900 hc        1 MOL      0.001094
    156 H68        -4.7830   -1.9980   -1.8770 hc        1 MOL      0.001094
    157 H69        -6.6250   -0.5520   -2.8990 hc        1 MOL     -0.023972
    158 H70        -7.7810   -1.8420   -2.4850 hc        1 MOL     -0.023972
    159 N14        -4.5400   -2.1000    1.5470 n         1 MOL     -0.039801
    160 C53        -3.5470   -2.7370    2.4160 c3        1 MOL     -0.237165
    161 C54        -3.9130   -2.4260    3.8830 c         1 MOL      0.488619
    162 O24        -3.6700   -3.2870    4.7680 o         1 MOL     -0.551623
    163 C55        -2.1740   -2.0400    2.1380 c3        1 MOL      0.275593
    164 C56        -1.4340   -2.3000    0.8630 c3        1 MOL     -0.158913
    165 C57        -0.1240   -1.5360    0.6140 c         1 MOL      0.716602
    166 O25         0.0620   -0.3680    1.1000 o         1 MOL     -0.697117
    167 O26         0.7410   -2.0270   -0.1810 o         1 MOL     -0.697117
    168 H71        -4.5670   -1.0950    1.6020 hn        1 MOL     -0.073280
    169 H72        -3.5060   -3.8100    2.2180 h1        1 MOL      0.139975
    170 H73        -1.5320   -2.2850    2.9760 hc        1 MOL     -0.055393
    171 H74        -2.3430   -0.9630    2.1300 hc        1 MOL     -0.055393
    172 H75        -2.1420   -1.9690    0.1060 hc        1 MOL      0.056515
    173 H76        -1.1850   -3.3480    0.8110 hc        1 MOL      0.056515
    174 N15        -4.5150   -1.2660    4.2930 n         1 MOL     -0.283194
    175 C58        -4.4110   -0.7940    5.6440 c3        1 MOL     -0.030743
    176 H77        -5.4080   -0.7220    6.0810 h1        1 MOL      0.039192
    177 H78        -3.8090   -1.4900    6.2280 h1        1 MOL      0.039192
    178 H79        -3.9400    0.1900    5.6510 h1        1 MOL      0.039192
    179 H80        -4.9140   -0.6540    3.5880 hn        1 MOL      0.224033
    180 Ca1         2.4210    0.0360   -0.0150 Ca        1 MOL      1.798815
    181 O27         5.2010    0.4850    0.9040 oh        1 MOL     -0.821660
    182 H81         5.5670   -0.3750    1.1140 ho        1 MOL      0.390593
    183 H82         5.5520    1.0640    1.5770 ho        1 MOL      0.390593
    184 O28         2.5000    0.1620    2.6510 oh        1 MOL     -0.821660
    185 H83         1.8730   -0.2770    3.2140 ho        1 MOL      0.390593
    186 H84         3.1690    0.4990    3.2500 ho        1 MOL      0.390593
    187 O29         0.8630    0.7430   -2.0730 oh        1 MOL     -0.821660
    188 H85         1.1800    0.2150   -2.8090 ho        1 MOL      0.390593
    189 H86         1.0500    1.6510   -2.3320 ho        1 MOL      0.390593
@<TRIPOS>BOND
     1    1    2 1   
     2    1    4 1   
     3    1    5 1   
     4    1    6 1   
     5    2    3 2   
     6    2    7 1   
     7    7    8 1   
     8    7   15 1   
     9    8    9 1   
    10    8   11 1   
    11    8   16 1   
    12    9   10 2   
    13    9   19 1   
    14   11   12 1   
    15   11   17 1   
    16   11   18 1   
    17   12   13 1   
    18   12   14 1   
    19   19   20 1   
    20   19   27 1   
    21   20   21 1   
    22   20   23 1   
    23   20   28 1   
    24   21   22 2   
    25   21   38 1   
    26   23   24 1   
    27   23   25 1   
    28   23   29 1   
    29   24   26 1   
    30   24   30 1   
    31   24   31 1   
    32   25   32 1   
    33   25   33 1   
    34   25   34 1   
    35   26   35 1   
    36   26   36 1   
    37   26   37 1   
    38   38   39 1   
    39   38   46 1   
    40   39   40 1   
    41   39   42 1   
    42   39   47 1   
    43   40   41 2   
    44   40   50 1   
    45   42   43 1   
    46   42   48 1   
    47   42   49 1   
    48   43   44 1   
    49   43   45 1   
    50   50   51 1   
    51   50   54 1   
    52   51   52 1   
    53   51   55 1   
    54   51   56 1   
    55   52   53 2   
    56   52   57 1   
    57   57   58 1   
    58   57   65 1   
    59   58   59 1   
    60   58   61 1   
    61   58   66 1   
    62   59   60 2   
    63   59   69 1   
    64   61   62 1   
    65   61   67 1   
    66   61   68 1   
    67   62   63 1   
    68   62   64 1   
    69   69   70 1   
    70   69   73 1   
    71   70   71 1   
    72   70   74 1   
    73   70   75 1   
    74   71   72 2   
    75   71   76 1   
    76   76   77 1   
    77   76   85 1   
    78   77   78 1   
    79   77   80 1   
    80   77   86 1   
    81   78   79 2   
    82   78   93 1   
    83   80   81 1   
    84   80   87 1   
    85   80   88 1   
    86   81   82 1   
    87   81   89 1   
    88   81   90 1   
    89   82   83 1   
    90   82   84 2   
    91   83   91 1   
    92   83   92 1   
    93   93   94 1   
    94   93  100 1   
    95   94   95 1   
    96   94   97 1   
    97   94  101 1   
    98   95   96 2   
    99   95  109 1   
   100   97   98 1   
   101   97   99 1   
   102   97  102 1   
   103   98  103 1   
   104   98  104 1   
   105   98  105 1   
   106   99  106 1   
   107   99  107 1   
   108   99  108 1   
   109  109  110 1   
   110  109  117 1   
   111  110  111 1   
   112  110  113 1   
   113  110  118 1   
   114  111  112 2   
   115  111  123 1   
   116  113  114 1   
   117  113  119 1   
   118  113  120 1   
   119  114  115 1   
   120  114  116 2   
   121  115  121 1   
   122  115  122 1   
   123  123  124 1   
   124  123  135 1   
   125  124  125 1   
   126  124  127 1   
   127  124  136 1   
   128  125  126 2   
   129  125  144 1   
   130  127  128 1   
   131  127  137 1   
   132  127  138 1   
   133  128  129 ar  
   134  128  130 ar  
   135  129  131 ar  
   136  129  139 1   
   137  130  132 ar  
   138  130  140 1   
   139  131  133 ar  
   140  131  141 1   
   141  132  133 ar  
   142  132  142 1   
   143  133  134 1   
   144  134  143 1   
   145  144  145 1   
   146  144  153 1   
   147  145  146 1   
   148  145  148 1   
   149  145  154 1   
   150  146  147 2   
   151  146  159 1   
   152  148  149 1   
   153  148  155 1   
   154  148  156 1   
   155  149  150 1   
   156  149  157 1   
   157  149  158 1   
   158  150  151 1   
   159  150  152 1   
   160  159  160 1   
   161  159  168 1   
   162  160  161 1   
   163  160  163 1   
   164  160  169 1   
   165  161  162 2   
   166  161  174 1   
   167  163  164 1   
   168  163  170 1   
   169  163  171 1   
   170  164  165 1   
   171  164  172 1   
   172  164  173 1   
   173  165  166 1   
   174  165  167 1   
   175  174  175 1   
   176  174  179 1   
   177  175  176 1   
   178  175  177 1   
   179  175  178 1   
   180  181  182 1   
   181  181  183 1   
   182  184  185 1   
   183  184  186 1   
   184  187  188 1   
   185  187  189 1   
@<TRIPOS>SUBSTRUCTURE
     1 MOL         1 TEMP              0 ****  ****    0 ROOT
