@<TRIPOS>MOLECULE
MOL
  179   176     1     0     0
SMALL
resp


@<TRIPOS>ATOM
      1 C1          2.2950    3.5400    4.2610 c3        1 MOL     -0.234995
      2 C2          1.4750    3.2310    2.9940 c         1 MOL      0.505727
      3 O1          2.0580    2.9560    1.9160 o         1 MOL     -0.505309
      4 H1          2.7650    2.6250    4.6210 hc        1 MOL      0.066970
      5 H2          3.0650    4.2750    4.0250 hc        1 MOL      0.066970
      6 H3          1.6360    3.9370    5.0330 hc        1 MOL      0.066970
      7 N1          0.1160    3.2260    3.0950 n         1 MOL     -0.585906
      8 C3         -0.7690    2.7530    1.9940 c3        1 MOL     -0.015884
      9 C4         -1.4240    4.0100    1.4010 c         1 MOL      0.603184
     10 O2         -2.6110    4.3580    1.4880 o         1 MOL     -0.522280
     11 C5         -1.8420    1.7770    2.5410 c3        1 MOL      0.046757
     12 C6         -2.8250    1.2920    1.5430 c         1 MOL      0.617593
     13 O3         -3.8390    0.6500    1.8840 o         1 MOL     -0.686356
     14 O4         -2.5270    1.4020    0.3420 o         1 MOL     -0.686356
     15 H4         -0.2300    3.5390    3.9920 hn        1 MOL      0.353123
     16 H5         -0.2030    2.2680    1.2010 h1        1 MOL      0.084601
     17 H6         -2.3960    2.2580    3.3490 hc        1 MOL     -0.011097
     18 H7         -1.3350    0.9560    3.0590 hc        1 MOL     -0.011097
     19 N2         -0.5720    4.7780    0.6610 n         1 MOL     -0.483156
     20 C7         -0.9060    6.0820    0.0710 c3        1 MOL     -0.106455
     21 C8         -2.0640    6.0390   -0.9520 c         1 MOL      0.497000
     22 O5         -2.8180    6.9660   -1.0680 o         1 MOL     -0.552897
     23 C9          0.3930    6.7590   -0.4400 c3        1 MOL     -0.346788
     24 C10         1.3320    7.0760    0.6660 c3        1 MOL      0.234811
     25 C11         2.2780    8.2460    0.3690 c3        1 MOL     -0.291484
     26 C12         3.4400    8.3600    1.3680 c3        1 MOL     -0.110959
     27 N3          2.8830    8.8550    2.6200 n4        1 MOL     -0.295765
     28 H8          0.3120    4.3660    0.4200 hn        1 MOL      0.335407
     29 H9         -1.3130    6.7050    0.8660 h1        1 MOL      0.138161
     30 H10         0.0180    7.6570   -0.9260 hc        1 MOL      0.145346
     31 H11         0.8990    6.1970   -1.2200 hc        1 MOL      0.145346
     32 H12         1.9500    6.1980    0.8540 hc        1 MOL     -0.001752
     33 H13         0.7090    7.2970    1.5370 hc        1 MOL     -0.001752
     34 H14         1.8210    9.1940    0.0960 hc        1 MOL      0.110360
     35 H15         2.7100    7.9410   -0.5810 hc        1 MOL      0.110360
     36 H16         4.1460    9.1070    1.0040 hx        1 MOL      0.160330
     37 H17         3.9550    7.4040    1.4610 hx        1 MOL      0.160330
     38 H18         3.5550    9.3570    3.1890 hn        1 MOL      0.314299
     39 H19         2.1490    9.4930    2.3530 hn        1 MOL      0.314299
     40 H20         2.5070    8.1210    3.2080 hn        1 MOL      0.314299
     41 N4         -2.4170    4.8870   -1.4890 n         1 MOL     -0.246907
     42 C13        -3.5190    4.6860   -2.4690 c3        1 MOL     -0.130006
     43 C14        -4.7880    4.2330   -1.7620 c         1 MOL      0.463345
     44 O6         -5.8780    4.2590   -2.3460 o         1 MOL     -0.556798
     45 C15        -3.1550    3.6630   -3.6050 c3        1 MOL     -0.133586
     46 C16        -2.5210    2.4360   -3.0130 c         1 MOL      0.672182
     47 O7         -1.3820    2.4430   -2.5390 o         1 MOL     -0.745522
     48 O8         -3.1670    1.3560   -3.0010 o         1 MOL     -0.745522
     49 H21        -1.8100    4.0830   -1.3760 hn        1 MOL      0.237234
     50 H22        -3.6630    5.6100   -3.0290 h1        1 MOL      0.132125
     51 H23        -2.4500    4.0070   -4.3720 hc        1 MOL      0.062050
     52 H24        -4.0220    3.4480   -4.2400 hc        1 MOL      0.062050
     53 N5         -4.6930    3.6460   -0.5790 n         1 MOL      0.034139
     54 C17        -5.8890    3.5010    0.3260 c3        1 MOL     -0.295667
     55 C18        -6.7490    2.1860    0.1290 c         1 MOL      0.536969
     56 O9         -7.9330    2.1130    0.5440 o         1 MOL     -0.559865
     57 H25        -3.7660    3.6900   -0.1740 hn        1 MOL      0.120561
     58 H26        -6.5470    4.3610    0.2310 h1        1 MOL      0.129617
     59 H27        -5.4630    3.3820    1.3180 h1        1 MOL      0.129617
     60 N6         -6.0830    1.1790   -0.4430 n         1 MOL     -0.180153
     61 C19        -6.6610   -0.1000   -0.8460 c3        1 MOL     -0.069075
     62 C20        -6.7640   -1.1920    0.2650 c         1 MOL      0.318335
     63 O10        -7.3910   -2.2380    0.0590 o         1 MOL     -0.479005
     64 C21        -6.0080   -0.6580   -2.1260 c3        1 MOL     -0.162471
     65 C22        -4.6750   -1.4770   -1.9480 c         1 MOL      0.448648
     66 N7         -4.5560   -2.5340   -2.7760 n         1 MOL     -0.656446
     67 O11        -3.8440   -1.1530   -1.1220 o         1 MOL     -0.404008
     68 H28        -5.1170    1.4510   -0.5590 hn        1 MOL      0.122948
     69 H29        -7.7200    0.0520   -1.0770 h1        1 MOL      0.113079
     70 H30        -5.7050    0.1780   -2.7450 hc        1 MOL      0.086845
     71 H31        -6.7500   -1.2810   -2.6070 hc        1 MOL      0.086845
     72 H32        -5.2370   -2.7870   -3.4810 hn        1 MOL      0.338509
     73 H33        -3.7060   -3.0730   -2.6950 hn        1 MOL      0.338509
     74 N8         -5.9610   -1.0120    1.2970 n         1 MOL     -0.087624
     75 C23        -5.9020   -1.9820    2.4280 c3        1 MOL     -0.212579
     76 C24        -4.7380   -3.0100    2.2100 c         1 MOL      0.643426
     77 O12        -4.7030   -3.9940    2.8950 o         1 MOL     -0.550536
     78 H34        -5.2530   -0.2960    1.2510 hn        1 MOL      0.153949
     79 H35        -6.8200   -2.5310    2.6380 h1        1 MOL      0.110098
     80 H36        -5.7110   -1.4890    3.3870 h1        1 MOL      0.110098
     81 N9         -3.7570   -2.7410    1.3290 n         1 MOL     -0.656355
     82 C25        -2.5670   -3.5990    1.0980 c3        1 MOL      0.357057
     83 C26        -1.3200   -2.7540    0.8620 c         1 MOL      0.443985
     84 O13        -1.3900   -1.7770    0.1630 o         1 MOL     -0.674506
     85 C27        -2.8390   -4.5150   -0.1240 c3        1 MOL      0.313355
     86 C28        -3.8990   -5.5980    0.1180 ca        1 MOL     -0.269846
     87 C29        -5.2010   -5.2560   -0.1390 ca        1 MOL     -0.033215
     88 C30        -3.6240   -6.8580    0.7290 ca        1 MOL     -0.033215
     89 C31        -6.2970   -6.1790    0.0190 ca        1 MOL     -0.314847
     90 C32        -4.6400   -7.8240    0.9290 ca        1 MOL     -0.314847
     91 C33        -5.9890   -7.4370    0.5900 ca        1 MOL      0.419268
     92 O14        -7.0100   -8.2870    0.7870 oh        1 MOL     -0.514036
     93 H37        -3.7930   -1.9220    0.7440 hn        1 MOL      0.475858
     94 H38        -2.4030   -4.2620    1.9400 h1        1 MOL     -0.024865
     95 H39        -1.8990   -5.0370   -0.3080 hc        1 MOL     -0.098275
     96 H40        -3.0010   -3.8770   -0.9870 hc        1 MOL     -0.098275
     97 H41        -5.5450   -4.3060   -0.5160 ha        1 MOL      0.096339
     98 H42        -2.6140   -7.0960    1.0010 ha        1 MOL      0.096339
     99 H43        -7.3090   -5.9160   -0.2320 ha        1 MOL      0.153646
    100 H44        -4.4510   -8.8230    1.2860 ha        1 MOL      0.153646
    101 H45        -6.8800   -9.1510    1.1780 ho        1 MOL      0.372948
    102 N10        -0.1730   -3.2380    1.3760 n         1 MOL     -0.434105
    103 C34         1.1590   -2.5650    1.2330 c3        1 MOL     -0.267670
    104 C35         2.3320   -3.5510    0.8360 c         1 MOL      0.628445
    105 O15         2.5970   -4.5550    1.4990 o         1 MOL     -0.550071
    106 C36         1.6290   -1.6670    2.3560 c3        1 MOL      0.143760
    107 C37         1.8300   -2.3960    3.7030 c3        1 MOL     -0.119048
    108 C38         0.4580   -0.6420    2.5130 c3        1 MOL     -0.358642
    109 C39         2.5730   -1.5210    4.6750 c3        1 MOL     -0.112573
    110 H46        -0.1250   -4.1770    1.7340 hn        1 MOL      0.291120
    111 H47         1.0140   -1.9330    0.3550 h1        1 MOL      0.213776
    112 H48         2.5620   -1.2340    2.0090 hc        1 MOL      0.033193
    113 H49         2.5710   -3.1700    3.4770 hc        1 MOL      0.071165
    114 H50         0.8890   -2.8120    4.0610 hc        1 MOL      0.071165
    115 H51        -0.4040   -1.1180    2.9750 hc        1 MOL      0.137364
    116 H52         0.8300    0.1720    3.1370 hc        1 MOL      0.137364
    117 H53         0.2270   -0.1740    1.5530 hc        1 MOL      0.137364
    118 H54         2.9040   -2.2300    5.4350 hc        1 MOL      0.028920
    119 H55         3.4360   -1.0540    4.2100 hc        1 MOL      0.028920
    120 H56         1.9400   -0.7600    5.1260 hc        1 MOL      0.028920
    121 N11         3.1670   -3.2220   -0.1870 n         1 MOL     -0.415954
    122 C40         4.4340   -3.8110   -0.7220 c3        1 MOL      0.014010
    123 C41         5.6370   -3.4050    0.1020 c         1 MOL      0.526336
    124 O16         5.7540   -2.4340    0.8450 o         1 MOL     -0.388699
    125 C42         4.5790   -3.6300   -2.2400 c3        1 MOL     -0.174800
    126 O17         4.7430   -2.3250   -2.5880 oh        1 MOL     -0.436687
    127 H57         3.0190   -2.3430   -0.6640 hn        1 MOL      0.166457
    128 H58         4.3660   -4.8770   -0.5430 h1        1 MOL      0.078827
    129 H59         3.7280   -4.0160   -2.7900 h1        1 MOL      0.116721
    130 H60         5.4180   -4.2170   -2.5980 h1        1 MOL      0.116721
    131 H61         3.9290   -2.1860   -3.0740 ho        1 MOL      0.394907
    132 N12         6.6650   -4.2440   -0.2030 n         1 MOL     -0.498856
    133 C43         8.0370   -3.8650    0.1580 c3        1 MOL      0.121877
    134 C44         8.4930   -2.6050   -0.5450 c         1 MOL      0.528745
    135 O18         9.2640   -1.8390    0.0190 o         1 MOL     -0.547303
    136 C45         8.9830   -5.0260   -0.1570 c3        1 MOL     -0.276096
    137 H62         6.4980   -5.0630   -0.7590 hn        1 MOL      0.297512
    138 H63         8.1230   -3.7000    1.2290 h1        1 MOL      0.091835
    139 H64        10.0250   -4.7400    0.0380 hc        1 MOL      0.084294
    140 H65         8.7260   -5.8690    0.4880 hc        1 MOL      0.084294
    141 H66         8.9500   -5.3000   -1.2090 hc        1 MOL      0.084294
    142 N13         7.9820   -2.2730   -1.7380 n         1 MOL     -0.484156
    143 C46         8.2910   -0.9990   -2.4630 c3        1 MOL      0.221449
    144 C47         7.4960    0.1260   -1.8050 c         1 MOL      0.328187
    145 O19         7.9330    1.2570   -1.7920 o         1 MOL     -0.528562
    146 C48         7.9350   -1.1520   -3.9440 c3        1 MOL     -0.234050
    147 H67         7.2610   -2.8890   -2.1020 hn        1 MOL      0.276302
    148 H68         9.3420   -0.7590   -2.2880 h1        1 MOL      0.070771
    149 H69         8.3940   -2.0880   -4.2760 hc        1 MOL      0.058745
    150 H70         6.8540   -1.1570   -3.9640 hc        1 MOL      0.058745
    151 H71         8.3530   -0.2760   -4.4470 hc        1 MOL      0.058745
    152 N14         6.3330   -0.1430   -1.1860 n         1 MOL      0.095634
    153 C49         5.5670    0.8950   -0.5500 c3        1 MOL     -0.200981
    154 C50         6.2140    1.2710    0.7970 c         1 MOL      0.474659
    155 O20         6.1050    2.4240    1.0890 o         1 MOL     -0.520798
    156 C51         4.1080    0.4580   -0.3300 c3        1 MOL     -0.018959
    157 C52         3.2540    0.8400   -1.5740 c3        1 MOL      0.006262
    158 C53         1.7170    0.4400   -1.3450 c         1 MOL      0.670785
    159 O21         1.4200   -0.7350   -1.7630 o         1 MOL     -0.708283
    160 O22         0.8480    1.1820   -0.8410 o         1 MOL     -0.708283
    161 H72         5.8810   -1.0000   -1.4540 hn        1 MOL      0.047998
    162 H73         5.5000    1.7530   -1.2320 h1        1 MOL      0.111370
    163 H74         3.6690    1.1570    0.3800 hc        1 MOL      0.054057
    164 H75         3.9910   -0.5750    0.0160 hc        1 MOL      0.054057
    165 H76         3.6560    0.3750   -2.4790 hc        1 MOL     -0.019429
    166 H77         3.3870    1.8720   -1.8810 hc        1 MOL     -0.019429
    167 N15         6.8230    0.2400    1.5030 n         1 MOL     -0.118508
    168 C54         7.5030    0.5030    2.7380 c3        1 MOL     -0.257941
    169 H78         7.4040   -0.3590    3.3980 h1        1 MOL      0.097345
    170 H79         8.5580    0.6900    2.5410 h1        1 MOL      0.097345
    171 H80         7.0630    1.3790    3.2170 h1        1 MOL      0.097345
    172 H81         6.7060   -0.7040    1.1620 hn        1 MOL      0.104917
    173 Ca1        -1.4170   -0.0370   -1.7010 Ca        1 MOL      1.758161
    174 O23        -1.5210   -2.4610   -2.9280 oh        1 MOL     -0.848864
    175 H82        -1.9550   -3.0950   -3.4920 ho        1 MOL      0.417226
    176 H83        -0.6800   -2.8680   -2.6970 ho        1 MOL      0.417226
    177 O24        -0.5950   -0.0740   -4.2390 oh        1 MOL     -0.848864
    178 H84        -0.5670    0.8200   -4.5790 ho        1 MOL      0.417226
    179 H85        -0.5850   -0.6210   -5.0330 ho        1 MOL      0.417226
@<TRIPOS>BOND
     1    1    2 1   
     2    1    4 1   
     3    1    5 1   
     4    1    6 1   
     5    2    3 2   
     6    2    7 1   
     7    7    8 1   
     8    7   15 1   
     9    8    9 1   
    10    8   11 1   
    11    8   16 1   
    12    9   10 2   
    13    9   19 1   
    14   11   12 1   
    15   11   17 1   
    16   11   18 1   
    17   12   13 1   
    18   12   14 1   
    19   19   20 1   
    20   19   28 1   
    21   20   21 1   
    22   20   23 1   
    23   20   29 1   
    24   21   22 2   
    25   21   41 1   
    26   23   24 1   
    27   23   30 1   
    28   23   31 1   
    29   24   25 1   
    30   24   32 1   
    31   24   33 1   
    32   25   26 1   
    33   25   34 1   
    34   25   35 1   
    35   26   27 1   
    36   26   36 1   
    37   26   37 1   
    38   27   38 1   
    39   27   39 1   
    40   27   40 1   
    41   41   42 1   
    42   41   49 1   
    43   42   43 1   
    44   42   45 1   
    45   42   50 1   
    46   43   44 2   
    47   43   53 1   
    48   45   46 1   
    49   45   51 1   
    50   45   52 1   
    51   46   47 1   
    52   46   48 1   
    53   53   54 1   
    54   53   57 1   
    55   54   55 1   
    56   54   58 1   
    57   54   59 1   
    58   55   56 2   
    59   55   60 1   
    60   60   61 1   
    61   60   68 1   
    62   61   62 1   
    63   61   64 1   
    64   61   69 1   
    65   62   63 2   
    66   62   74 1   
    67   64   65 1   
    68   64   70 1   
    69   64   71 1   
    70   65   66 1   
    71   65   67 2   
    72   66   72 1   
    73   66   73 1   
    74   74   75 1   
    75   74   78 1   
    76   75   76 1   
    77   75   79 1   
    78   75   80 1   
    79   76   77 2   
    80   76   81 1   
    81   81   82 1   
    82   81   93 1   
    83   82   83 1   
    84   82   85 1   
    85   82   94 1   
    86   83   84 2   
    87   83  102 1   
    88   85   86 1   
    89   85   95 1   
    90   85   96 1   
    91   86   87 ar  
    92   86   88 ar  
    93   87   89 ar  
    94   87   97 1   
    95   88   90 ar  
    96   88   98 1   
    97   89   91 ar  
    98   89   99 1   
    99   90   91 ar  
   100   90  100 1   
   101   91   92 1   
   102   92  101 1   
   103  102  103 1   
   104  102  110 1   
   105  103  104 1   
   106  103  106 1   
   107  103  111 1   
   108  104  105 2   
   109  104  121 1   
   110  106  107 1   
   111  106  108 1   
   112  106  112 1   
   113  107  109 1   
   114  107  113 1   
   115  107  114 1   
   116  108  115 1   
   117  108  116 1   
   118  108  117 1   
   119  109  118 1   
   120  109  119 1   
   121  109  120 1   
   122  121  122 1   
   123  121  127 1   
   124  122  123 1   
   125  122  125 1   
   126  122  128 1   
   127  123  124 2   
   128  123  132 1   
   129  125  126 1   
   130  125  129 1   
   131  125  130 1   
   132  126  131 1   
   133  132  133 1   
   134  132  137 1   
   135  133  134 1   
   136  133  136 1   
   137  133  138 1   
   138  134  135 2   
   139  134  142 1   
   140  136  139 1   
   141  136  140 1   
   142  136  141 1   
   143  142  143 1   
   144  142  147 1   
   145  143  144 1   
   146  143  146 1   
   147  143  148 1   
   148  144  145 2   
   149  144  152 1   
   150  146  149 1   
   151  146  150 1   
   152  146  151 1   
   153  152  153 1   
   154  152  161 1   
   155  153  154 1   
   156  153  156 1   
   157  153  162 1   
   158  154  155 2   
   159  154  167 1   
   160  156  157 1   
   161  156  163 1   
   162  156  164 1   
   163  157  158 1   
   164  157  165 1   
   165  157  166 1   
   166  158  159 1   
   167  158  160 1   
   168  167  168 1   
   169  167  172 1   
   170  168  169 1   
   171  168  170 1   
   172  168  171 1   
   173  174  175 1   
   174  174  176 1   
   175  177  178 1   
   176  177  179 1   
@<TRIPOS>SUBSTRUCTURE
     1 MOL         1 TEMP              0 ****  ****    0 ROOT
