@<TRIPOS>MOLECULE
MOL
  189   185     1     0     0
SMALL
resp


@<TRIPOS>ATOM
      1 C1         -0.7480    5.0010    5.7780 c3        1 MOL     -0.338028
      2 C2         -1.2330    4.1220    4.5760 c         1 MOL      0.763908
      3 O1         -1.3810    2.8870    4.6440 o         1 MOL     -0.641069
      4 H1         -0.8450    6.0550    5.5190 hc        1 MOL      0.075867
      5 H2         -1.3570    4.7840    6.6560 hc        1 MOL      0.075867
      6 H3          0.2960    4.7760    5.9960 hc        1 MOL      0.075867
      7 N1         -1.5890    4.7990    3.5310 n         1 MOL     -0.626861
      8 C3         -2.0630    4.2200    2.2520 c3        1 MOL      0.389161
      9 C4         -1.6550    5.0590    1.0340 c         1 MOL      0.472229
     10 O2         -1.4290    6.2330    1.1960 o         1 MOL     -0.581998
     11 C5         -3.6440    4.0920    2.4240 c3        1 MOL     -0.480690
     12 C6         -4.3270    3.5070    1.2570 c         1 MOL      0.890010
     13 O3         -3.8290    2.6570    0.4850 o         1 MOL     -0.715698
     14 O4         -5.4980    3.8430    1.1600 o         1 MOL     -0.715698
     15 H4         -1.7460    5.7860    3.6250 hn        1 MOL      0.309681
     16 H5         -1.7470    3.1810    2.0850 h1        1 MOL     -0.038114
     17 H6         -3.9680    5.1310    2.4330 hc        1 MOL      0.105553
     18 H7         -3.9410    3.5580    3.3260 hc        1 MOL      0.105553
     19 N2         -1.5560    4.4580   -0.1100 n         1 MOL     -0.188711
     20 C7         -1.2110    5.1270   -1.3610 c3        1 MOL     -0.023143
     21 C8         -2.0910    4.6900   -2.5540 c         1 MOL      0.387911
     22 O5         -2.2770    5.4750   -3.4970 o         1 MOL     -0.577035
     23 C9          0.3350    4.9590   -1.6480 c3        1 MOL      0.282485
     24 C10         1.2760    5.7670   -0.7210 c3        1 MOL     -0.040353
     25 C11         0.7770    5.0370   -3.0750 c3        1 MOL     -0.324265
     26 C12         1.2080    7.2790   -0.8430 c3        1 MOL     -0.200995
     27 H8         -1.6470    3.4530   -0.1830 hn        1 MOL     -0.087410
     28 H9         -1.2770    6.2060   -1.2140 h1        1 MOL      0.083936
     29 H10         0.6190    3.9250   -1.4930 hc        1 MOL     -0.006816
     30 H11         2.3040    5.4830   -0.9610 hc        1 MOL      0.025571
     31 H12         1.0820    5.3940    0.2820 hc        1 MOL      0.025571
     32 H13         0.2670    5.9390   -3.4150 hc        1 MOL      0.073983
     33 H14         1.7930    5.4050   -3.1750 hc        1 MOL      0.073983
     34 H15         0.5570    4.0840   -3.5660 hc        1 MOL      0.073983
     35 H16         0.1640    7.5630   -0.8270 hc        1 MOL      0.039132
     36 H17         1.7100    7.7380    0.0090 hc        1 MOL      0.039132
     37 H18         1.7000    7.6040   -1.7640 hc        1 MOL      0.039132
     38 N3         -2.7110    3.5330   -2.5680 n         1 MOL     -0.160883
     39 C13        -3.4380    3.0250   -3.7110 c3        1 MOL     -0.046635
     40 C14        -4.9020    2.5310   -3.3540 c         1 MOL      0.327777
     41 O6         -5.6530    2.1300   -4.2520 o         1 MOL     -0.548181
     42 C15        -2.6740    1.8400   -4.3060 c3        1 MOL     -0.024771
     43 C16        -2.1830    0.7080   -3.3090 c         1 MOL      0.597563
     44 O7         -2.7160    0.6550   -2.1890 o         1 MOL     -0.680742
     45 O8         -1.1030    0.0650   -3.5820 o         1 MOL     -0.680742
     46 H19        -2.5230    2.8250   -1.8680 hn        1 MOL      0.307912
     47 H20        -3.4930    3.6570   -4.6000 h1        1 MOL      0.112660
     48 H21        -1.7730    2.2420   -4.7700 hc        1 MOL      0.021145
     49 H22        -3.1070    1.4080   -5.2090 hc        1 MOL      0.021145
     50 N4         -5.3200    2.5990   -2.0820 n         1 MOL     -0.039260
     51 C17        -6.6760    2.3770   -1.6180 c3        1 MOL     -0.173158
     52 C18        -7.1830    0.9890   -1.5970 c         1 MOL      0.471111
     53 O9         -8.4200    0.8300   -1.3780 o         1 MOL     -0.595196
     54 H23        -4.7330    3.0830   -1.4240 hn        1 MOL      0.070910
     55 H24        -7.3210    3.0090   -2.2330 h1        1 MOL      0.093668
     56 H25        -6.6340    2.7680   -0.5980 h1        1 MOL      0.093668
     57 N5         -6.3160   -0.0650   -1.7460 n         1 MOL     -0.038526
     58 C19        -6.7340   -1.3490   -2.1860 c3        1 MOL     -0.147248
     59 C20        -7.2650   -2.3560   -1.0750 c         1 MOL      0.399924
     60 O10        -7.9470   -3.3500   -1.3900 o         1 MOL     -0.539973
     61 C21        -5.5820   -2.0600   -2.9520 c3        1 MOL     -0.104037
     62 C22        -4.3210   -2.2370   -2.0400 c         1 MOL      0.746925
     63 O11        -4.2350   -1.6080   -0.9070 o         1 MOL     -0.681158
     64 O12        -3.4890   -3.0150   -2.5210 o         1 MOL     -0.681158
     65 H26        -5.3180    0.0860   -1.7280 hn        1 MOL      0.061618
     66 H27        -7.5820   -1.2300   -2.8580 h1        1 MOL      0.100305
     67 H28        -5.3460   -1.5670   -3.8930 hc        1 MOL      0.042262
     68 H29        -5.9910   -3.0300   -3.2500 hc        1 MOL      0.042262
     69 N6         -7.1080   -2.0420    0.1900 n         1 MOL     -0.183581
     70 C23        -7.2010   -2.9910    1.3020 c3        1 MOL     -0.241484
     71 C24        -5.9900   -3.8860    1.4160 c         1 MOL      0.587934
     72 O13        -6.1190   -4.9890    1.8930 o         1 MOL     -0.590655
     73 H30        -6.8100   -1.0930    0.3980 hn        1 MOL      0.221227
     74 H31        -8.0820   -3.6260    1.2040 h1        1 MOL      0.103513
     75 H32        -7.3070   -2.3280    2.1570 h1        1 MOL      0.103513
     76 N7         -4.7720   -3.4960    1.0260 n         1 MOL     -0.225416
     77 C25        -3.5180   -4.1700    1.3880 c3        1 MOL     -0.132529
     78 C26        -2.3920   -3.2260    1.7770 c         1 MOL      0.542998
     79 O14        -2.4720   -2.0590    1.5160 o         1 MOL     -0.633828
     80 C27        -3.0690   -5.1200    0.2990 c3        1 MOL      0.055354
     81 C28        -4.1110   -6.0430   -0.3590 c3        1 MOL     -0.229257
     82 C29        -3.4150   -7.1130   -1.1170 c         1 MOL      0.631055
     83 N8         -3.0310   -6.8610   -2.3900 n         1 MOL     -0.781171
     84 O15        -3.0600   -8.1500   -0.5780 o         1 MOL     -0.591757
     85 H33        -4.6950   -2.6810    0.4440 hn        1 MOL      0.177418
     86 H34        -3.7350   -4.6780    2.3340 h1        1 MOL      0.062278
     87 H35        -2.2170   -5.6960    0.6590 hc        1 MOL      0.026249
     88 H36        -2.5870   -4.4490   -0.4070 hc        1 MOL      0.026249
     89 H37        -4.6900   -5.4310   -1.0660 hc        1 MOL      0.101292
     90 H38        -4.8090   -6.4420    0.3700 hc        1 MOL      0.101292
     91 H39        -3.1760   -6.0130   -2.9120 hn        1 MOL      0.349935
     92 H40        -2.3140   -7.4950   -2.7220 hn        1 MOL      0.349935
     93 N9         -1.3400   -3.6120    2.4290 n         1 MOL     -0.323239
     94 C30        -0.1340   -2.8040    2.7850 c3        1 MOL      0.056774
     95 C31         0.8950   -3.2030    1.6810 c         1 MOL      0.461007
     96 O16         1.1470   -4.4070    1.6170 o         1 MOL     -0.580550
     97 C32         0.3940   -2.9750    4.2670 c3        1 MOL      0.479946
     98 C33         1.4180   -1.9370    4.7390 c3        1 MOL     -0.471645
     99 C34        -0.7710   -2.8700    5.2090 c3        1 MOL     -0.471645
    100 H41        -1.2090   -4.6120    2.4920 hn        1 MOL      0.209362
    101 H42        -0.4000   -1.7510    2.7570 h1        1 MOL      0.008779
    102 H43         0.8620   -3.9520    4.3950 hc        1 MOL     -0.087782
    103 H44         1.6630   -2.1350    5.7950 hc        1 MOL      0.099007
    104 H45         2.2370   -2.0510    4.0350 hc        1 MOL      0.099007
    105 H46         1.0940   -0.9110    4.5900 hc        1 MOL      0.099007
    106 H47        -1.4330   -3.6880    4.9400 hc        1 MOL      0.099007
    107 H48        -0.4310   -3.1350    6.2160 hc        1 MOL      0.099007
    108 H49        -1.2120   -1.8720    5.2500 hc        1 MOL      0.099007
    109 N10         1.4570   -2.2650    0.9550 n         1 MOL     -0.211414
    110 C35         2.6110   -2.6480    0.0900 c3        1 MOL      0.182813
    111 C36         3.9400   -2.2390    0.7540 c         1 MOL      0.254359
    112 O17         3.9320   -1.4840    1.7290 o         1 MOL     -0.379893
    113 C37         2.4910   -1.8380   -1.2470 c3        1 MOL     -0.328758
    114 C38         3.5730   -2.2450   -2.2660 c         1 MOL      0.651760
    115 N11         3.7120   -3.5100   -2.6530 n         1 MOL     -0.751398
    116 O18         4.4240   -1.4210   -2.6150 o         1 MOL     -0.481410
    117 H50         1.1520   -1.3060    0.9410 hn        1 MOL      0.192148
    118 H51         2.6020   -3.7140   -0.1450 h1        1 MOL      0.015960
    119 H52         2.4440   -0.7660   -1.0720 hc        1 MOL      0.126971
    120 H53         1.5150   -2.1110   -1.6430 hc        1 MOL      0.126971
    121 H54         3.0550   -4.2460   -2.4180 hn        1 MOL      0.342747
    122 H55         4.4420   -3.8650   -3.2410 hn        1 MOL      0.342747
    123 N12         5.1120   -2.6850    0.2770 n         1 MOL     -0.202351
    124 C39         6.4160   -2.5720    1.0200 c3        1 MOL      0.017015
    125 C40         6.7370   -1.0340    1.1680 c         1 MOL      0.482147
    126 O19         7.3770   -0.6690    2.1490 o         1 MOL     -0.554154
    127 C41         7.4470   -3.4170    0.2440 c3        1 MOL     -0.065689
    128 C42         7.8480   -2.8350   -1.1700 ca        1 MOL     -0.065465
    129 C43         8.8410   -1.7970   -1.1470 ca        1 MOL     -0.085449
    130 C44         7.4190   -3.3620   -2.3620 ca        1 MOL     -0.085449
    131 C45         9.3550   -1.3750   -2.3610 ca        1 MOL     -0.360603
    132 C46         7.9030   -2.8760   -3.5770 ca        1 MOL     -0.360603
    133 C47         8.7640   -1.7640   -3.5790 ca        1 MOL      0.451655
    134 O20         9.2250   -1.2790   -4.7550 oh        1 MOL     -0.513701
    135 H56         5.0440   -3.3510   -0.4850 hn        1 MOL      0.148489
    136 H57         6.3560   -2.9830    2.0300 h1        1 MOL      0.068258
    137 H58         7.0630   -4.4310    0.1480 hc        1 MOL      0.036726
    138 H59         8.3330   -3.5520    0.8710 hc        1 MOL      0.036726
    139 H60         9.2160   -1.4140   -0.2120 ha        1 MOL      0.113240
    140 H61         6.7480   -4.2060   -2.4080 ha        1 MOL      0.113240
    141 H62        10.0760   -0.5750   -2.3650 ha        1 MOL      0.169379
    142 H63         7.5180   -3.3510   -4.4680 ha        1 MOL      0.169379
    143 H64         9.7580   -0.4790   -4.7010 ho        1 MOL      0.382379
    144 N13         6.3860   -0.2080    0.1730 n         1 MOL     -0.139904
    145 C48         6.5210    1.2240    0.2090 c3        1 MOL     -0.109648
    146 C49         5.6090    1.9170    1.2730 c         1 MOL      0.309610
    147 O21         5.9010    2.9720    1.8910 o         1 MOL     -0.514257
    148 C50         6.1750    1.7930   -1.1540 c3        1 MOL      0.254594
    149 C51         7.2950    1.4530   -2.1110 c3        1 MOL     -0.250023
    150 C52         7.0070    2.1010   -3.4820 c         1 MOL      0.673004
    151 O22         6.8730    3.3410   -3.5870 o         1 MOL     -0.713295
    152 O23         6.8730    1.3260   -4.4770 o         1 MOL     -0.713295
    153 H65         5.8480   -0.6170   -0.5740 hn        1 MOL      0.209637
    154 H66         7.5520    1.4860    0.4390 h1        1 MOL      0.082081
    155 H67         6.0920    2.8760   -1.1320 hc        1 MOL     -0.025902
    156 H68         5.1940    1.3660   -1.3700 hc        1 MOL     -0.025902
    157 H69         7.3310    0.3680   -2.2090 hc        1 MOL      0.029337
    158 H70         8.2540    1.8130   -1.7320 hc        1 MOL      0.029337
    159 N14         4.4430    1.2960    1.5880 n         1 MOL     -0.185297
    160 C53         3.5970    1.7380    2.6850 c3        1 MOL      0.015027
    161 C54         3.9780    1.2090    4.0340 c         1 MOL      0.457034
    162 O24         3.7260    1.9390    4.9840 o         1 MOL     -0.576142
    163 C55         2.1640    1.3890    2.3740 c3        1 MOL      0.175344
    164 C56         1.6090    1.6130    0.9240 c3        1 MOL     -0.052761
    165 C57         0.1290    1.3530    0.8180 c         1 MOL      0.700153
    166 O25        -0.5200    0.5600    1.5700 o         1 MOL     -0.669289
    167 O26        -0.4900    1.7430   -0.1980 o         1 MOL     -0.669289
    168 H71         4.1860    0.4720    1.0580 hn        1 MOL      0.127905
    169 H72         3.6180    2.8270    2.7500 h1        1 MOL      0.077118
    170 H73         1.5560    1.9750    3.0600 hc        1 MOL     -0.056524
    171 H74         2.0480    0.3160    2.4870 hc        1 MOL     -0.056524
    172 H75         2.1540    1.0010    0.2040 hc        1 MOL     -0.005871
    173 H76         1.8300    2.6420    0.6530 hc        1 MOL     -0.005871
    174 N15         4.7590    0.1120    4.2130 n         1 MOL     -0.014531
    175 C58         5.3580   -0.3550    5.4240 c3        1 MOL     -0.342981
    176 H77         5.4720   -1.4380    5.3780 h1        1 MOL      0.107231
    177 H78         6.3370    0.1070    5.5480 h1        1 MOL      0.107231
    178 H79         4.7220   -0.0930    6.2700 h1        1 MOL      0.107231
    179 H80         5.0580   -0.2930    3.3440 hn        1 MOL      0.100570
    180 Ca1        -2.6780    0.2820    0.3390 Ca        1 MOL      1.770502
    181 O27        -2.9440    0.7920    2.9210 oh        1 MOL     -0.885489
    182 H81        -3.3110    0.7020    3.8000 ho        1 MOL      0.429271
    183 H82        -1.9900    0.7940    3.0690 ho        1 MOL      0.429271
    184 O28        -5.6650    0.3960    1.2690 oh        1 MOL     -0.885489
    185 H83        -5.7820    0.1540    2.1810 ho        1 MOL      0.429271
    186 H84        -5.8880    1.3220    1.2310 ho        1 MOL      0.429271
    187 O29        -1.2630   -1.4430   -1.2960 oh        1 MOL     -0.885489
    188 H85        -1.0450   -0.9270   -2.0690 ho        1 MOL      0.429271
    189 H86        -1.9150   -2.0760   -1.5960 ho        1 MOL      0.429271
@<TRIPOS>BOND
     1    1    2 1   
     2    1    4 1   
     3    1    5 1   
     4    1    6 1   
     5    2    3 2   
     6    2    7 1   
     7    7    8 1   
     8    7   15 1   
     9    8    9 1   
    10    8   11 1   
    11    8   16 1   
    12    9   10 2   
    13    9   19 1   
    14   11   12 1   
    15   11   17 1   
    16   11   18 1   
    17   12   13 1   
    18   12   14 1   
    19   19   20 1   
    20   19   27 1   
    21   20   21 1   
    22   20   23 1   
    23   20   28 1   
    24   21   22 2   
    25   21   38 1   
    26   23   24 1   
    27   23   25 1   
    28   23   29 1   
    29   24   26 1   
    30   24   30 1   
    31   24   31 1   
    32   25   32 1   
    33   25   33 1   
    34   25   34 1   
    35   26   35 1   
    36   26   36 1   
    37   26   37 1   
    38   38   39 1   
    39   38   46 1   
    40   39   40 1   
    41   39   42 1   
    42   39   47 1   
    43   40   41 2   
    44   40   50 1   
    45   42   43 1   
    46   42   48 1   
    47   42   49 1   
    48   43   44 1   
    49   43   45 1   
    50   50   51 1   
    51   50   54 1   
    52   51   52 1   
    53   51   55 1   
    54   51   56 1   
    55   52   53 2   
    56   52   57 1   
    57   57   58 1   
    58   57   65 1   
    59   58   59 1   
    60   58   61 1   
    61   58   66 1   
    62   59   60 2   
    63   59   69 1   
    64   61   62 1   
    65   61   67 1   
    66   61   68 1   
    67   62   63 1   
    68   62   64 1   
    69   69   70 1   
    70   69   73 1   
    71   70   71 1   
    72   70   74 1   
    73   70   75 1   
    74   71   72 2   
    75   71   76 1   
    76   76   77 1   
    77   76   85 1   
    78   77   78 1   
    79   77   80 1   
    80   77   86 1   
    81   78   79 2   
    82   78   93 1   
    83   80   81 1   
    84   80   87 1   
    85   80   88 1   
    86   81   82 1   
    87   81   89 1   
    88   81   90 1   
    89   82   83 1   
    90   82   84 2   
    91   83   91 1   
    92   83   92 1   
    93   93   94 1   
    94   93  100 1   
    95   94   95 1   
    96   94   97 1   
    97   94  101 1   
    98   95   96 2   
    99   95  109 1   
   100   97   98 1   
   101   97   99 1   
   102   97  102 1   
   103   98  103 1   
   104   98  104 1   
   105   98  105 1   
   106   99  106 1   
   107   99  107 1   
   108   99  108 1   
   109  109  110 1   
   110  109  117 1   
   111  110  111 1   
   112  110  113 1   
   113  110  118 1   
   114  111  112 2   
   115  111  123 1   
   116  113  114 1   
   117  113  119 1   
   118  113  120 1   
   119  114  115 1   
   120  114  116 2   
   121  115  121 1   
   122  115  122 1   
   123  123  124 1   
   124  123  135 1   
   125  124  125 1   
   126  124  127 1   
   127  124  136 1   
   128  125  126 2   
   129  125  144 1   
   130  127  128 1   
   131  127  137 1   
   132  127  138 1   
   133  128  129 ar  
   134  128  130 ar  
   135  129  131 ar  
   136  129  139 1   
   137  130  132 ar  
   138  130  140 1   
   139  131  133 ar  
   140  131  141 1   
   141  132  133 ar  
   142  132  142 1   
   143  133  134 1   
   144  134  143 1   
   145  144  145 1   
   146  144  153 1   
   147  145  146 1   
   148  145  148 1   
   149  145  154 1   
   150  146  147 2   
   151  146  159 1   
   152  148  149 1   
   153  148  155 1   
   154  148  156 1   
   155  149  150 1   
   156  149  157 1   
   157  149  158 1   
   158  150  151 1   
   159  150  152 1   
   160  159  160 1   
   161  159  168 1   
   162  160  161 1   
   163  160  163 1   
   164  160  169 1   
   165  161  162 2   
   166  161  174 1   
   167  163  164 1   
   168  163  170 1   
   169  163  171 1   
   170  164  165 1   
   171  164  172 1   
   172  164  173 1   
   173  165  166 1   
   174  165  167 1   
   175  174  175 1   
   176  174  179 1   
   177  175  176 1   
   178  175  177 1   
   179  175  178 1   
   180  181  182 1   
   181  181  183 1   
   182  184  185 1   
   183  184  186 1   
   184  187  188 1   
   185  187  189 1   
@<TRIPOS>SUBSTRUCTURE
     1 MOL         1 TEMP              0 ****  ****    0 ROOT
