@<TRIPOS>MOLECULE
MOL
  175   173     1     0     0
SMALL
resp


@<TRIPOS>ATOM
      1 C1          0.3960    3.5310    5.7520 c3        1 MOL     -0.437179
      2 C2         -0.2090    3.4280    4.3370 c         1 MOL      0.685687
      3 O1          0.5350    3.3270    3.3130 o         1 MOL     -0.578738
      4 H1          0.8830    2.5910    6.0070 hc        1 MOL      0.112014
      5 H2          1.1300    4.3380    5.7760 hc        1 MOL      0.112014
      6 H3         -0.3960    3.7380    6.4720 hc        1 MOL      0.112014
      7 N1         -1.4940    3.5130    4.1220 n         1 MOL     -0.558400
      8 C3         -2.1660    3.2400    2.7950 c3        1 MOL      0.023512
      9 C4         -2.2910    4.5110    1.9040 c         1 MOL      0.646931
     10 O2         -2.9000    5.5060    2.3380 o         1 MOL     -0.602754
     11 C5         -3.6120    2.7690    3.0770 c3        1 MOL     -0.328184
     12 C6         -4.2300    2.0740    1.9170 c         1 MOL      0.837887
     13 O3         -5.4130    1.6570    2.0230 o         1 MOL     -0.716985
     14 O4         -3.6230    1.8290    0.8710 o         1 MOL     -0.716985
     15 H4         -2.1470    3.5440    4.8880 hn        1 MOL      0.321967
     16 H5         -1.5360    2.5040    2.3030 h1        1 MOL      0.136375
     17 H6         -4.3340    3.5790    3.1960 hc        1 MOL      0.079304
     18 H7         -3.7920    2.2070    4.0050 hc        1 MOL      0.079304
     19 N2         -1.8050    4.4350    0.6810 n         1 MOL     -0.531492
     20 C7         -2.0560    5.5080   -0.2660 c3        1 MOL      0.402336
     21 C8         -2.9730    5.1440   -1.4690 c         1 MOL      0.425798
     22 O5         -2.9680    5.9740   -2.4050 o         1 MOL     -0.554300
     23 C9         -0.6890    6.0870   -0.6650 c3        1 MOL     -0.196427
     24 H8         -1.4520    3.5400    0.3430 hn        1 MOL      0.301493
     25 H9         -2.5720    6.3080    0.2660 h1        1 MOL     -0.024081
     26 H10        -0.0380    6.4930    0.1020 hc        1 MOL      0.034828
     27 H11        -0.1940    5.2340   -1.1270 hc        1 MOL      0.034828
     28 H12        -0.9230    6.8170   -1.4360 hc        1 MOL      0.034828
     29 N3         -3.7550    4.0510   -1.4670 n         1 MOL     -0.330808
     30 C10        -4.6020    3.6640   -2.6560 c3        1 MOL      0.038356
     31 C11        -6.0140    3.0830   -2.3650 c         1 MOL      0.409721
     32 O6         -6.8980    3.0670   -3.2070 o         1 MOL     -0.540659
     33 C12        -3.8340    2.7550   -3.6110 c3        1 MOL     -0.129047
     34 C13        -3.2510    1.5780   -2.7960 c         1 MOL      0.616507
     35 O7         -2.1120    1.0950   -3.1060 o         1 MOL     -0.676821
     36 O8         -3.9010    1.1400   -1.7680 o         1 MOL     -0.676821
     37 H13        -3.7910    3.5580   -0.5870 hn        1 MOL      0.154187
     38 H14        -4.8230    4.5880   -3.1980 h1        1 MOL      0.067202
     39 H15        -2.9690    3.2570   -4.0310 hc        1 MOL      0.055990
     40 H16        -4.4130    2.4030   -4.4630 hc        1 MOL      0.055990
     41 N4         -6.2460    2.4360   -1.2210 n         1 MOL     -0.241673
     42 C14        -7.4050    1.6290   -0.8950 c3        1 MOL     -0.213642
     43 C15        -7.4690    0.1620   -1.4610 c         1 MOL      0.509487
     44 O9         -8.6140   -0.3930   -1.4340 o         1 MOL     -0.618357
     45 H17        -5.4770    2.5410   -0.5800 hn        1 MOL      0.230129
     46 H18        -8.3360    2.0820   -1.2230 h1        1 MOL      0.119383
     47 H19        -7.4400    1.4980    0.1840 h1        1 MOL      0.119383
     48 N5         -6.3910   -0.5020   -1.8720 n         1 MOL     -0.168681
     49 C16        -6.3110   -1.9390   -2.3890 c3        1 MOL     -0.326190
     50 C17        -6.3060   -2.9740   -1.3010 c         1 MOL      0.712467
     51 O10        -6.2550   -4.1000   -1.6640 o         1 MOL     -0.550699
     52 C18        -5.1400   -2.0710   -3.4100 c3        1 MOL      0.057795
     53 C19        -3.7500   -1.9860   -2.7440 c         1 MOL      0.459528
     54 N6         -2.7690   -1.9230   -3.6100 n         1 MOL     -0.644226
     55 O11        -3.5320   -1.8660   -1.5910 o         1 MOL     -0.373451
     56 H20        -5.5160   -0.0110   -1.7760 hn        1 MOL      0.217690
     57 H21        -7.2340   -2.0670   -2.9640 h1        1 MOL      0.157295
     58 H22        -5.2510   -1.2830   -4.1710 hc        1 MOL      0.022112
     59 H23        -5.1630   -2.9640   -4.0220 hc        1 MOL      0.022112
     60 H24        -2.8870   -2.0970   -4.5960 hn        1 MOL      0.318746
     61 H25        -1.8210   -1.7180   -3.3440 hn        1 MOL      0.318746
     62 N7         -6.4510   -2.6360    0.0240 n         1 MOL     -0.507043
     63 C20        -6.5790   -3.6530    1.1370 c3        1 MOL     -0.035859
     64 C21        -5.2560   -4.3860    1.5820 c         1 MOL      0.383821
     65 O12        -5.2970   -5.5330    2.0560 o         1 MOL     -0.556124
     66 H26        -6.1590   -1.7130    0.3250 hn        1 MOL      0.318788
     67 H27        -7.1880   -4.4530    0.7240 h1        1 MOL      0.086684
     68 H28        -7.1480   -3.2600    1.9830 h1        1 MOL      0.086684
     69 N8         -4.1190   -3.8110    1.2230 n         1 MOL     -0.025490
     70 C22        -2.7460   -4.4690    1.3870 c3        1 MOL     -0.150977
     71 C23        -1.6160   -3.4470    1.4460 c         1 MOL      0.390068
     72 O13        -1.6850   -2.3170    0.9330 o         1 MOL     -0.444815
     73 C24        -2.3590   -5.3060    0.1180 c3        1 MOL      0.520764
     74 C25        -3.0950   -6.6370   -0.0560 c3        1 MOL     -0.577346
     75 O14        -2.5470   -4.5790   -1.0970 oh        1 MOL     -0.558497
     76 H29        -4.0970   -2.9160    0.7610 hn        1 MOL     -0.047001
     77 H30        -2.7830   -5.0530    2.3090 h1        1 MOL      0.092339
     78 H31        -1.3220   -5.6180    0.2230 h1        1 MOL     -0.031967
     79 H32        -2.1720   -3.7030   -1.0380 ho        1 MOL      0.298722
     80 H33        -4.1520   -6.4110   -0.1340 hc        1 MOL      0.151693
     81 H34        -2.6870   -7.0200   -0.9930 hc        1 MOL      0.151693
     82 H35        -3.0200   -7.3370    0.7790 hc        1 MOL      0.151693
     83 N9         -0.4820   -3.8840    1.9520 n         1 MOL     -0.386841
     84 C26         0.7860   -3.1270    1.9480 c3        1 MOL      0.117644
     85 C27         1.6100   -3.3260    0.6880 c         1 MOL      0.472904
     86 O15         2.0060   -4.4200    0.2340 o         1 MOL     -0.561328
     87 C28         1.5740   -3.3120    3.2610 c3        1 MOL     -0.076329
     88 C29         0.9020   -2.4000    4.3090 c3        1 MOL      0.033330
     89 C30         3.0450   -2.9140    3.0600 c3        1 MOL     -0.067526
     90 C31         1.5880   -2.4670    5.6610 c3        1 MOL     -0.200464
     91 H36        -0.3490   -4.8450    2.2340 hn        1 MOL      0.244323
     92 H37         0.4400   -2.0910    1.9370 h1        1 MOL      0.010052
     93 H38         1.6170   -4.3480    3.5850 hc        1 MOL      0.046186
     94 H39        -0.1700   -2.6270    4.3040 hc        1 MOL      0.021029
     95 H40         0.9930   -1.3390    4.0920 hc        1 MOL      0.021029
     96 H41         3.6100   -2.8170    3.9820 hc        1 MOL      0.017094
     97 H42         3.5300   -3.6030    2.3630 hc        1 MOL      0.017094
     98 H43         3.0700   -1.8920    2.6720 hc        1 MOL      0.017094
     99 H44         1.6890   -3.4850    6.0380 hc        1 MOL      0.046522
    100 H45         2.4990   -1.8770    5.5890 hc        1 MOL      0.046522
    101 H46         0.8860   -1.9890    6.3440 hc        1 MOL      0.046522
    102 N10         1.8900   -2.1480    0.0090 n         1 MOL     -0.104077
    103 C32         2.7220   -1.9440   -1.1610 c3        1 MOL      0.058781
    104 C33         4.1870   -1.6110   -0.8130 c         1 MOL      0.412102
    105 O16         4.5300   -1.2420    0.3070 o         1 MOL     -0.348220
    106 C34         2.0470   -0.9740   -2.1190 c3        1 MOL     -0.304827
    107 C35         0.5910   -1.3650   -2.4310 c         1 MOL      0.720962
    108 O17        -0.1780   -1.2160   -1.5150 o         1 MOL     -0.669897
    109 O18         0.3360   -1.6970   -3.6150 o         1 MOL     -0.669897
    110 H47         1.4560   -1.3130    0.3710 hn        1 MOL      0.070263
    111 H48         2.7680   -2.9450   -1.5810 h1        1 MOL      0.050782
    112 H49         2.5810   -0.8600   -3.0640 hc        1 MOL      0.082522
    113 H50         1.9670    0.0210   -1.6690 hc        1 MOL      0.082522
    114 N11         5.1210   -1.6890   -1.8060 n         1 MOL     -0.586039
    115 C36         6.5070   -1.3570   -1.5200 c3        1 MOL      0.310520
    116 C37         6.8450    0.1110   -1.0210 c         1 MOL      0.335902
    117 O19         7.3930    0.2910    0.0850 o         1 MOL     -0.521293
    118 C38         7.4500   -1.6440   -2.7340 c3        1 MOL     -0.126103
    119 C39         8.9520   -1.4320   -2.5030 ca        1 MOL      0.126933
    120 C40         9.6940   -2.1370   -1.5650 ca        1 MOL     -0.210104
    121 C41         9.7150   -0.5150   -3.2710 ca        1 MOL     -0.210104
    122 C42        11.0990   -1.8860   -1.3190 ca        1 MOL     -0.068394
    123 C43        11.0400   -0.2220   -3.0740 ca        1 MOL     -0.068394
    124 C44        11.7390   -0.9480   -2.1120 ca        1 MOL     -0.127763
    125 H51         4.7890   -1.9460   -2.7330 hn        1 MOL      0.332560
    126 H52         6.8320   -2.0200   -0.7120 h1        1 MOL      0.056854
    127 H53         7.1940   -1.0830   -3.6330 hc        1 MOL      0.033988
    128 H54         7.2470   -2.6930   -2.9790 hc        1 MOL      0.033988
    129 H55         9.1760   -2.8450   -0.9360 ha        1 MOL      0.112633
    130 H56         9.1820    0.0230   -4.0450 ha        1 MOL      0.112633
    131 H57        11.6180   -2.4480   -0.5560 ha        1 MOL      0.106035
    132 H58        11.5760    0.5330   -3.6330 ha        1 MOL      0.106035
    133 H59        12.8030   -0.7820   -2.0090 ha        1 MOL      0.093505
    134 N12         6.4040    1.1830   -1.6640 n         1 MOL     -0.058981
    135 C45         6.4810    2.5310   -1.1000 c3        1 MOL     -0.064171
    136 C46         5.7450    2.6490    0.2300 c         1 MOL      0.374896
    137 O20         5.9720    3.6050    0.9630 o         1 MOL     -0.525002
    138 C47         5.7930    3.3700   -2.2860 c3        1 MOL     -0.062702
    139 C48         5.0120    2.3730   -3.1700 c3        1 MOL     -0.144520
    140 C49         5.9290    1.1670   -3.0280 c3        1 MOL      0.123549
    141 H60         7.5240    2.8260   -1.1550 h1        1 MOL      0.097542
    142 H61         5.0760    4.0650   -1.8410 hc        1 MOL      0.050421
    143 H62         6.5210    4.0010   -2.7940 hc        1 MOL      0.050421
    144 H63         3.9930    2.2120   -2.8170 hc        1 MOL      0.060798
    145 H64         5.1160    2.6490   -4.2200 hc        1 MOL      0.060798
    146 H65         5.3510    0.2850   -3.3190 h1        1 MOL     -0.010584
    147 H66         6.7950    1.1900   -3.6930 h1        1 MOL     -0.010584
    148 N13         4.8480    1.7400    0.6360 n         1 MOL     -0.106502
    149 C50         4.1320    1.8200    1.9380 c3        1 MOL     -0.089794
    150 C51         4.9220    0.9910    3.0170 c         1 MOL      0.459416
    151 O21         4.9320    1.3490    4.1900 o         1 MOL     -0.573543
    152 C52         2.6970    1.2240    1.8220 c3        1 MOL     -0.083525
    153 C53         1.9380    1.9480    0.7440 c3        1 MOL     -0.025358
    154 C54         0.4710    1.3860    0.6800 c         1 MOL      0.510162
    155 O22         0.0670    0.3690    1.2990 o         1 MOL     -0.693453
    156 O23        -0.3610    1.9170   -0.0950 o         1 MOL     -0.693453
    157 H67         4.7770    0.9060    0.0720 hn        1 MOL      0.108328
    158 H68         4.0460    2.8240    2.3470 h1        1 MOL      0.118778
    159 H69         2.1970    1.2660    2.7890 hc        1 MOL      0.099932
    160 H70         2.8150    0.1760    1.5330 hc        1 MOL      0.099932
    161 H71         2.3850    1.7580   -0.2360 hc        1 MOL      0.057906
    162 H72         1.9780    3.0200    0.9300 hc        1 MOL      0.057906
    163 N14         5.6400   -0.0490    2.5970 n         1 MOL     -0.009173
    164 C55         6.5750   -0.8380    3.3710 c3        1 MOL     -0.247129
    165 H73         6.0320   -1.4060    4.1260 h1        1 MOL      0.086069
    166 H74         7.1060   -1.5240    2.7110 h1        1 MOL      0.086069
    167 H75         7.2910   -0.1770    3.8600 h1        1 MOL      0.086069
    168 H76         5.3170   -0.3880    1.7030 hn        1 MOL      0.029082
    169 Ca1        -2.0830    0.0140   -0.1900 Ca        1 MOL      1.720876
    170 O24        -2.0160   -0.0740    3.1040 oh        1 MOL     -0.737496
    171 H77        -1.1500   -0.0220    2.6960 ho        1 MOL      0.360018
    172 H78        -1.8510   -0.3490    4.0060 ho        1 MOL      0.360018
    173 O25        -4.7050   -0.7220    1.0970 oh        1 MOL     -0.737496
    174 H79        -4.9250    0.1900    1.2640 ho        1 MOL      0.360018
    175 H80        -4.7370   -1.1460    1.9560 ho        1 MOL      0.360018
@<TRIPOS>BOND
     1    1    2 1   
     2    1    4 1   
     3    1    5 1   
     4    1    6 1   
     5    2    3 2   
     6    2    7 1   
     7    7    8 1   
     8    7   15 1   
     9    8    9 1   
    10    8   11 1   
    11    8   16 1   
    12    9   10 2   
    13    9   19 1   
    14   11   12 1   
    15   11   17 1   
    16   11   18 1   
    17   12   13 1   
    18   12   14 1   
    19   19   20 1   
    20   19   24 1   
    21   20   21 1   
    22   20   23 1   
    23   20   25 1   
    24   21   22 2   
    25   21   29 1   
    26   23   26 1   
    27   23   27 1   
    28   23   28 1   
    29   29   30 1   
    30   29   37 1   
    31   30   31 1   
    32   30   33 1   
    33   30   38 1   
    34   31   32 2   
    35   31   41 1   
    36   33   34 1   
    37   33   39 1   
    38   33   40 1   
    39   34   35 1   
    40   34   36 1   
    41   41   42 1   
    42   41   45 1   
    43   42   43 1   
    44   42   46 1   
    45   42   47 1   
    46   43   44 2   
    47   43   48 1   
    48   48   49 1   
    49   48   56 1   
    50   49   50 1   
    51   49   52 1   
    52   49   57 1   
    53   50   51 2   
    54   50   62 1   
    55   52   53 1   
    56   52   58 1   
    57   52   59 1   
    58   53   54 1   
    59   53   55 2   
    60   54   60 1   
    61   54   61 1   
    62   62   63 1   
    63   62   66 1   
    64   63   64 1   
    65   63   67 1   
    66   63   68 1   
    67   64   65 2   
    68   64   69 1   
    69   69   70 1   
    70   69   76 1   
    71   70   71 1   
    72   70   73 1   
    73   70   77 1   
    74   71   72 2   
    75   71   83 1   
    76   73   74 1   
    77   73   75 1   
    78   73   78 1   
    79   74   80 1   
    80   74   81 1   
    81   74   82 1   
    82   75   79 1   
    83   83   84 1   
    84   83   91 1   
    85   84   85 1   
    86   84   87 1   
    87   84   92 1   
    88   85   86 2   
    89   85  102 1   
    90   87   88 1   
    91   87   89 1   
    92   87   93 1   
    93   88   90 1   
    94   88   94 1   
    95   88   95 1   
    96   89   96 1   
    97   89   97 1   
    98   89   98 1   
    99   90   99 1   
   100   90  100 1   
   101   90  101 1   
   102  102  103 1   
   103  102  110 1   
   104  103  104 1   
   105  103  106 1   
   106  103  111 1   
   107  104  105 2   
   108  104  114 1   
   109  106  107 1   
   110  106  112 1   
   111  106  113 1   
   112  107  108 1   
   113  107  109 1   
   114  114  115 1   
   115  114  125 1   
   116  115  116 1   
   117  115  118 1   
   118  115  126 1   
   119  116  117 2   
   120  116  134 1   
   121  118  119 1   
   122  118  127 1   
   123  118  128 1   
   124  119  120 ar  
   125  119  121 ar  
   126  120  122 ar  
   127  120  129 1   
   128  121  123 ar  
   129  121  130 1   
   130  122  124 ar  
   131  122  131 1   
   132  123  124 ar  
   133  123  132 1   
   134  124  133 1   
   135  134  135 1   
   136  134  140 1   
   137  135  136 1   
   138  135  138 1   
   139  135  141 1   
   140  136  137 2   
   141  136  148 1   
   142  138  139 1   
   143  138  142 1   
   144  138  143 1   
   145  139  140 1   
   146  139  144 1   
   147  139  145 1   
   148  140  146 1   
   149  140  147 1   
   150  148  149 1   
   151  148  157 1   
   152  149  150 1   
   153  149  152 1   
   154  149  158 1   
   155  150  151 2   
   156  150  163 1   
   157  152  153 1   
   158  152  159 1   
   159  152  160 1   
   160  153  154 1   
   161  153  161 1   
   162  153  162 1   
   163  154  155 1   
   164  154  156 1   
   165  163  164 1   
   166  163  168 1   
   167  164  165 1   
   168  164  166 1   
   169  164  167 1   
   170  170  171 1   
   171  170  172 1   
   172  173  174 1   
   173  173  175 1   
@<TRIPOS>SUBSTRUCTURE
     1 MOL         1 TEMP              0 ****  ****    0 ROOT
