@<TRIPOS>MOLECULE
MOL
  179   176     1     0     0
SMALL
resp


@<TRIPOS>ATOM
      1 C1          1.6380    4.0490    4.1790 c3        1 MOL     -0.100420
      2 C2          0.9930    3.2460    3.0400 c         1 MOL      0.566723
      3 O1          1.6180    3.0980    2.0130 o         1 MOL     -0.543565
      4 H1          1.4060    3.5760    5.1330 hc        1 MOL      0.012840
      5 H2          2.7190    4.0740    4.0390 hc        1 MOL      0.012840
      6 H3          1.2470    5.0660    4.1740 hc        1 MOL      0.012840
      7 N1         -0.2940    2.8880    3.1160 n         1 MOL     -0.406633
      8 C3         -1.2500    2.5990    2.0000 c3        1 MOL     -0.017913
      9 C4         -1.7560    3.9160    1.5160 c         1 MOL      0.544853
     10 O2         -2.9210    4.2550    1.6420 o         1 MOL     -0.466112
     11 C5         -2.2960    1.6390    2.4890 c3        1 MOL     -0.115838
     12 C6         -3.2340    1.1820    1.2810 c         1 MOL      0.549304
     13 O3         -2.7720    1.1430    0.1200 o         1 MOL     -0.632126
     14 O4         -4.3890    0.8550    1.6120 o         1 MOL     -0.632126
     15 H4         -0.7690    2.8720    4.0140 hn        1 MOL      0.269760
     16 H5         -0.6810    2.0310    1.2580 h1        1 MOL      0.046421
     17 H6         -2.9230    2.0160    3.2950 hc        1 MOL      0.039530
     18 H7         -1.7710    0.7580    2.8520 hc        1 MOL      0.039530
     19 N2         -0.9130    4.6880    0.8490 n         1 MOL     -0.603083
     20 C7         -1.2260    6.0140    0.3060 c3        1 MOL      0.192618
     21 C8         -2.3910    5.9180   -0.6960 c         1 MOL      0.346761
     22 O5         -3.3260    6.7490   -0.6240 o         1 MOL     -0.520878
     23 C9         -0.0410    6.8350   -0.1550 c3        1 MOL     -0.418396
     24 C10         1.0600    7.2760    0.8480 c3        1 MOL      0.425371
     25 C11         2.2270    8.0400    0.1570 c3        1 MOL     -0.139805
     26 C12         3.3700    8.0810    1.1850 c3        1 MOL     -0.048310
     27 N3          2.9680    9.0500    2.2550 n4        1 MOL     -0.432103
     28 H8         -0.0010    4.3510    0.6030 hn        1 MOL      0.393672
     29 H9         -1.7140    6.6200    1.0710 h1        1 MOL      0.064432
     30 H10        -0.3990    7.7710   -0.5750 hc        1 MOL      0.112272
     31 H11         0.4710    6.2680   -0.9330 hc        1 MOL      0.112272
     32 H12         1.4900    6.3980    1.3300 hc        1 MOL     -0.081968
     33 H13         0.6160    7.9280    1.6010 hc        1 MOL     -0.081968
     34 H14         1.9740    9.0600   -0.1230 hc        1 MOL      0.061541
     35 H15         2.6500    7.4710   -0.6630 hc        1 MOL      0.061541
     36 H16         4.2580    8.4860    0.7080 hx        1 MOL      0.140956
     37 H17         3.5220    7.0710    1.5430 hx        1 MOL      0.140956
     38 H18         2.2830    9.6970    1.9070 hn        1 MOL      0.342620
     39 H19         2.5390    8.5680    3.0330 hn        1 MOL      0.342620
     40 H20         3.7510    9.6030    2.5820 hn        1 MOL      0.342620
     41 N4         -2.3850    4.9260   -1.5830 n         1 MOL     -0.308073
     42 C13        -3.4710    4.6200   -2.5650 c3        1 MOL      0.090677
     43 C14        -4.7890    4.0650   -1.9490 c         1 MOL      0.402437
     44 O6         -5.7950    4.1650   -2.6590 o         1 MOL     -0.566968
     45 C15        -3.1190    3.6230   -3.6980 c3        1 MOL     -0.353938
     46 C16        -2.3910    2.4340   -3.0760 c         1 MOL      0.851142
     47 O7         -2.9780    1.3280   -3.2350 o         1 MOL     -0.774770
     48 O8         -1.3030    2.4650   -2.5050 o         1 MOL     -0.774770
     49 H21        -1.5670    4.3380   -1.6640 hn        1 MOL      0.242905
     50 H22        -3.8470    5.5310   -3.0400 h1        1 MOL      0.086759
     51 H23        -2.4230    4.1520   -4.3640 hc        1 MOL      0.107685
     52 H24        -3.9800    3.2840   -4.2800 hc        1 MOL      0.107685
     53 N5         -4.8050    3.4870   -0.7680 n         1 MOL     -0.017624
     54 C17        -5.9970    3.0780   -0.0880 c3        1 MOL     -0.157161
     55 C18        -6.4640    1.6370   -0.3550 c         1 MOL      0.641785
     56 O9         -7.4570    1.3270    0.1920 o         1 MOL     -0.574790
     57 H25        -3.9040    3.3360   -0.3420 hn        1 MOL      0.121866
     58 H26        -6.8500    3.6750   -0.4280 h1        1 MOL      0.086460
     59 H27        -5.9780    3.2890    0.9770 h1        1 MOL      0.086460
     60 N6         -5.8030    0.8230   -1.2440 n         1 MOL     -0.405993
     61 C19        -6.2680   -0.5150   -1.6130 c3        1 MOL     -0.039191
     62 C20        -6.3310   -1.5530   -0.4200 c         1 MOL      0.280081
     63 O10        -6.6670   -2.6820   -0.7050 o         1 MOL     -0.496286
     64 C21        -5.3450   -1.0250   -2.7670 c3        1 MOL     -0.172433
     65 C22        -4.1180   -1.7300   -2.3280 c         1 MOL      0.548005
     66 N7         -3.6880   -2.7540   -3.0100 n         1 MOL     -0.736783
     67 O11        -3.5160   -1.3590   -1.3430 o         1 MOL     -0.457242
     68 H28        -4.9570    1.2080   -1.6280 hn        1 MOL      0.219730
     69 H29        -7.2720   -0.4240   -2.0020 h1        1 MOL      0.124122
     70 H30        -5.1560   -0.2890   -3.5500 hc        1 MOL      0.087683
     71 H31        -5.9250   -1.8170   -3.2430 hc        1 MOL      0.087683
     72 H32        -4.3610   -3.1030   -3.6650 hn        1 MOL      0.344063
     73 H33        -3.1470   -3.5030   -2.6010 hn        1 MOL      0.344063
     74 N8         -5.9020   -1.2520    0.7590 n         1 MOL      0.017936
     75 C23        -5.9330   -2.0480    1.9750 c3        1 MOL     -0.407079
     76 C24        -4.6690   -2.8590    2.3160 c         1 MOL      0.767100
     77 O12        -4.7420   -3.6310    3.2680 o         1 MOL     -0.611842
     78 H34        -5.5270   -0.3180    0.8730 hn        1 MOL      0.249648
     79 H35        -6.8160   -2.6840    1.9940 h1        1 MOL      0.142846
     80 H36        -6.0240   -1.2910    2.7470 h1        1 MOL      0.142846
     81 N9         -3.6220   -2.6060    1.5950 n         1 MOL     -0.661201
     82 C25        -2.3630   -3.3400    1.6210 c3        1 MOL      0.533630
     83 C26        -1.0350   -2.4970    1.5160 c         1 MOL      0.271158
     84 O13        -1.0040   -1.4730    0.7750 o         1 MOL     -0.483104
     85 C27        -2.3540   -4.4030    0.5060 c3        1 MOL     -0.214006
     86 C28        -3.3990   -5.5310    0.5040 ca        1 MOL      0.279830
     87 C29        -4.3350   -5.5120   -0.5440 ca        1 MOL     -0.340367
     88 C30        -3.3360   -6.5820    1.3990 ca        1 MOL     -0.340367
     89 C31        -5.1810   -6.6240   -0.7320 ca        1 MOL     -0.087883
     90 C32        -4.2250   -7.6740    1.2890 ca        1 MOL     -0.087883
     91 C33        -5.1180   -7.6780    0.1870 ca        1 MOL      0.165906
     92 O14        -6.0780   -8.7480    0.0910 oh        1 MOL     -0.477771
     93 H37        -3.7710   -1.9410    0.8460 hn        1 MOL      0.333685
     94 H38        -2.3120   -3.8350    2.6010 h1        1 MOL     -0.055649
     95 H39        -1.3530   -4.8360    0.5590 hc        1 MOL      0.009735
     96 H40        -2.3400   -3.9530   -0.4770 hc        1 MOL      0.009735
     97 H41        -4.3660   -4.7030   -1.2570 ha        1 MOL      0.167632
     98 H42        -2.7230   -6.4120    2.2670 ha        1 MOL      0.167632
     99 H43        -5.8540   -6.7400   -1.5710 ha        1 MOL      0.125888
    100 H44        -4.1990   -8.4350    2.0540 ha        1 MOL      0.125888
    101 H45        -5.8240   -9.4780    0.6510 ho        1 MOL      0.347828
    102 N10        -0.0150   -2.8860    2.2120 n         1 MOL     -0.376632
    103 C34         1.3700   -2.3110    2.1780 c3        1 MOL     -0.075963
    104 C35         2.3780   -3.3370    1.6510 c         1 MOL      0.660285
    105 O15         2.4690   -4.3630    2.3130 o         1 MOL     -0.563138
    106 C36         1.6340   -1.7800    3.6470 c3        1 MOL      0.007875
    107 C37         0.7390   -0.5840    3.9460 c3        1 MOL     -0.026349
    108 C38         3.1410   -1.5750    3.8500 c3        1 MOL     -0.148035
    109 C39         0.8970   -0.0240    5.3490 c3        1 MOL     -0.288780
    110 H46        -0.1420   -3.5550    2.9570 hn        1 MOL      0.287563
    111 H47         1.3820   -1.5000    1.4550 h1        1 MOL      0.109677
    112 H48         1.2870   -2.5350    4.3470 hc        1 MOL      0.062041
    113 H49        -0.3200   -0.8410    3.8590 hc        1 MOL      0.070372
    114 H50         0.8970    0.1680    3.1780 hc        1 MOL      0.070372
    115 H51         3.4290   -1.3340    4.8640 hc        1 MOL      0.041878
    116 H52         3.8120   -2.4110    3.6870 hc        1 MOL      0.041878
    117 H53         3.5810   -0.9820    3.0560 hc        1 MOL      0.041878
    118 H54         0.9110   -0.8500    6.0650 hc        1 MOL      0.073350
    119 H55         1.9060    0.3760    5.4520 hc        1 MOL      0.073350
    120 H56         0.2090    0.7670    5.6340 hc        1 MOL      0.073350
    121 N11         2.9840   -3.0980    0.4600 n         1 MOL     -0.446529
    122 C40         4.1690   -3.8630   -0.0510 c3        1 MOL      0.053399
    123 C41         5.4890   -3.1870    0.3130 c         1 MOL      0.350570
    124 O16         5.5790   -2.1030    0.8510 o         1 MOL     -0.282691
    125 C42         4.1260   -3.9660   -1.5870 c3        1 MOL     -0.239615
    126 O17         4.2760   -2.6940   -2.2170 oh        1 MOL     -0.406778
    127 H57         2.6800   -2.2880   -0.0670 hn        1 MOL      0.238502
    128 H58         4.0490   -4.8510    0.3840 h1        1 MOL      0.093422
    129 H59         3.2550   -4.3940   -2.0850 h1        1 MOL      0.132697
    130 H60         4.9200   -4.6260   -1.9370 h1        1 MOL      0.132697
    131 H61         3.4810   -2.5170   -2.7210 ho        1 MOL      0.380270
    132 N12         6.5860   -3.9170    0.0150 n         1 MOL     -0.375228
    133 C43         7.9820   -3.4950    0.2240 c3        1 MOL      0.130215
    134 C44         8.2940   -2.3200   -0.7580 c         1 MOL      0.487829
    135 O18         8.7170   -1.2790   -0.2240 o         1 MOL     -0.512355
    136 C45         8.9470   -4.6280    0.0790 c3        1 MOL     -0.185307
    137 H62         6.4830   -4.8210   -0.4290 hn        1 MOL      0.245315
    138 H63         7.9810   -3.0750    1.2340 h1        1 MOL      0.065870
    139 H64         9.8880   -4.3960    0.5790 hc        1 MOL      0.062132
    140 H65         8.5350   -5.4840    0.6070 hc        1 MOL      0.062132
    141 H66         9.1730   -4.7970   -0.9670 hc        1 MOL      0.062132
    142 N13         7.8400   -2.3600   -2.0340 n         1 MOL     -0.433535
    143 C46         7.8340   -1.2190   -2.9600 c3        1 MOL      0.111196
    144 C47         7.2420    0.0480   -2.4100 c         1 MOL      0.386652
    145 O19         7.8100    1.1140   -2.4950 o         1 MOL     -0.529828
    146 C48         7.1420   -1.7160   -4.2020 c3        1 MOL     -0.150024
    147 H67         7.3010   -3.1540   -2.3550 hn        1 MOL      0.261718
    148 H68         8.8710   -1.0720   -3.2660 h1        1 MOL      0.069512
    149 H69         7.2740   -0.9680   -4.9860 hc        1 MOL      0.037274
    150 H70         7.5660   -2.6350   -4.6150 hc        1 MOL      0.037274
    151 H71         6.0860   -1.8330   -3.9580 hc        1 MOL      0.037274
    152 N14         6.0340   -0.0340   -1.9100 n         1 MOL     -0.054055
    153 C49         5.4260    1.2420   -1.4530 c3        1 MOL     -0.235508
    154 C50         5.9860    1.6810   -0.0990 c         1 MOL      0.600931
    155 O20         6.0000    2.8750    0.1710 o         1 MOL     -0.578246
    156 C51         3.8960    1.1150   -1.4880 c3        1 MOL      0.022095
    157 C52         3.2010    0.3570   -0.3540 c3        1 MOL      0.138167
    158 C53         1.6650    0.1750   -0.7290 c         1 MOL      0.709772
    159 O21         1.4090   -0.7920   -1.4030 o         1 MOL     -0.759490
    160 O22         0.8130    1.0300   -0.4670 o         1 MOL     -0.759490
    161 H72         5.5210   -0.8930   -2.0090 hn        1 MOL      0.127867
    162 H73         5.7090    2.0410   -2.1490 h1        1 MOL      0.132239
    163 H74         3.6210    0.6760   -2.4420 hc        1 MOL      0.002756
    164 H75         3.5110    2.1310   -1.5540 hc        1 MOL      0.002756
    165 H76         3.3580    0.9070    0.5660 hc        1 MOL     -0.069961
    166 H77         3.6320   -0.6220   -0.1570 hc        1 MOL     -0.069961
    167 N15         6.4520    0.7040    0.7310 n         1 MOL     -0.135746
    168 C54         7.1580    1.0530    1.9820 c3        1 MOL     -0.215933
    169 H78         6.7150    0.5050    2.8130 h1        1 MOL      0.084194
    170 H79         8.2110    0.7860    1.8920 h1        1 MOL      0.084194
    171 H80         7.0670    2.1240    2.1640 h1        1 MOL      0.084194
    172 H81         6.3370   -0.2990    0.6540 hn        1 MOL      0.112617
    173 Ca1        -1.2010    0.0950   -1.6000 Ca        1 MOL      1.761122
    174 O23        -0.7330   -0.9040   -4.3560 oh        1 MOL     -0.826106
    175 H82        -0.2550   -0.5400   -5.1060 ho        1 MOL      0.401462
    176 H83        -0.9000   -1.8110   -4.5930 ho        1 MOL      0.401462
    177 O24        -0.5610   -2.6020   -2.0080 oh        1 MOL     -0.826106
    178 H84        -0.5890   -3.5530   -1.8840 ho        1 MOL      0.401462
    179 H85         0.3310   -2.3540   -1.7520 ho        1 MOL      0.401462
@<TRIPOS>BOND
     1    1    2 1   
     2    1    4 1   
     3    1    5 1   
     4    1    6 1   
     5    2    3 2   
     6    2    7 1   
     7    7    8 1   
     8    7   15 1   
     9    8    9 1   
    10    8   11 1   
    11    8   16 1   
    12    9   10 2   
    13    9   19 1   
    14   11   12 1   
    15   11   17 1   
    16   11   18 1   
    17   12   13 1   
    18   12   14 1   
    19   19   20 1   
    20   19   28 1   
    21   20   21 1   
    22   20   23 1   
    23   20   29 1   
    24   21   22 2   
    25   21   41 1   
    26   23   24 1   
    27   23   30 1   
    28   23   31 1   
    29   24   25 1   
    30   24   32 1   
    31   24   33 1   
    32   25   26 1   
    33   25   34 1   
    34   25   35 1   
    35   26   27 1   
    36   26   36 1   
    37   26   37 1   
    38   27   38 1   
    39   27   39 1   
    40   27   40 1   
    41   41   42 1   
    42   41   49 1   
    43   42   43 1   
    44   42   45 1   
    45   42   50 1   
    46   43   44 2   
    47   43   53 1   
    48   45   46 1   
    49   45   51 1   
    50   45   52 1   
    51   46   47 1   
    52   46   48 1   
    53   53   54 1   
    54   53   57 1   
    55   54   55 1   
    56   54   58 1   
    57   54   59 1   
    58   55   56 2   
    59   55   60 1   
    60   60   61 1   
    61   60   68 1   
    62   61   62 1   
    63   61   64 1   
    64   61   69 1   
    65   62   63 2   
    66   62   74 1   
    67   64   65 1   
    68   64   70 1   
    69   64   71 1   
    70   65   66 1   
    71   65   67 2   
    72   66   72 1   
    73   66   73 1   
    74   74   75 1   
    75   74   78 1   
    76   75   76 1   
    77   75   79 1   
    78   75   80 1   
    79   76   77 2   
    80   76   81 1   
    81   81   82 1   
    82   81   93 1   
    83   82   83 1   
    84   82   85 1   
    85   82   94 1   
    86   83   84 2   
    87   83  102 1   
    88   85   86 1   
    89   85   95 1   
    90   85   96 1   
    91   86   87 ar  
    92   86   88 ar  
    93   87   89 ar  
    94   87   97 1   
    95   88   90 ar  
    96   88   98 1   
    97   89   91 ar  
    98   89   99 1   
    99   90   91 ar  
   100   90  100 1   
   101   91   92 1   
   102   92  101 1   
   103  102  103 1   
   104  102  110 1   
   105  103  104 1   
   106  103  106 1   
   107  103  111 1   
   108  104  105 2   
   109  104  121 1   
   110  106  107 1   
   111  106  108 1   
   112  106  112 1   
   113  107  109 1   
   114  107  113 1   
   115  107  114 1   
   116  108  115 1   
   117  108  116 1   
   118  108  117 1   
   119  109  118 1   
   120  109  119 1   
   121  109  120 1   
   122  121  122 1   
   123  121  127 1   
   124  122  123 1   
   125  122  125 1   
   126  122  128 1   
   127  123  124 2   
   128  123  132 1   
   129  125  126 1   
   130  125  129 1   
   131  125  130 1   
   132  126  131 1   
   133  132  133 1   
   134  132  137 1   
   135  133  134 1   
   136  133  136 1   
   137  133  138 1   
   138  134  135 2   
   139  134  142 1   
   140  136  139 1   
   141  136  140 1   
   142  136  141 1   
   143  142  143 1   
   144  142  147 1   
   145  143  144 1   
   146  143  146 1   
   147  143  148 1   
   148  144  145 2   
   149  144  152 1   
   150  146  149 1   
   151  146  150 1   
   152  146  151 1   
   153  152  153 1   
   154  152  161 1   
   155  153  154 1   
   156  153  156 1   
   157  153  162 1   
   158  154  155 2   
   159  154  167 1   
   160  156  157 1   
   161  156  163 1   
   162  156  164 1   
   163  157  158 1   
   164  157  165 1   
   165  157  166 1   
   166  158  159 1   
   167  158  160 1   
   168  167  168 1   
   169  167  172 1   
   170  168  169 1   
   171  168  170 1   
   172  168  171 1   
   173  174  175 1   
   174  174  176 1   
   175  177  178 1   
   176  177  179 1   
@<TRIPOS>SUBSTRUCTURE
     1 MOL         1 TEMP              0 ****  ****    0 ROOT
