@<TRIPOS>MOLECULE
MOL
  183   181     1     0     0
SMALL
resp


@<TRIPOS>ATOM
      1 C1         -0.3320    0.4390    6.4130 c3        1 MOL     -0.257873
      2 C2         -0.5690    0.6540    4.8700 c         1 MOL      0.784740
      3 O1          0.2880    1.1400    4.1440 o         1 MOL     -0.602197
      4 H1          0.7000    0.1320    6.5830 hc        1 MOL      0.054732
      5 H2         -0.5240    1.3720    6.9450 hc        1 MOL      0.054732
      6 H3         -1.0070   -0.3340    6.7810 hc        1 MOL      0.054732
      7 N1         -1.7910    0.3530    4.4380 n         1 MOL     -0.712408
      8 C3         -2.3520    0.6710    3.1420 c3        1 MOL      0.399852
      9 C4         -2.6180    2.1360    3.1830 c         1 MOL      0.389096
     10 O2         -3.3410    2.6100    4.0520 o         1 MOL     -0.607573
     11 C5         -3.5980   -0.2110    2.9770 c3        1 MOL     -0.098696
     12 C6         -4.3940   -0.0370    1.7230 c         1 MOL      0.599460
     13 O3         -5.4540   -0.6680    1.5500 o         1 MOL     -0.551289
     14 O4         -3.9270    0.7050    0.8320 o         1 MOL     -0.551289
     15 H4         -2.4320    0.0580    5.1570 hn        1 MOL      0.332445
     16 H5         -1.6560    0.4730    2.3250 h1        1 MOL     -0.031882
     17 H6         -4.1900   -0.1140    3.8830 hc        1 MOL     -0.005213
     18 H7         -3.3580   -1.2750    3.0760 hc        1 MOL     -0.005213
     19 N2         -2.1070    2.9250    2.2420 n         1 MOL     -0.042655
     20 C7         -2.3100    4.3680    2.0540 c3        1 MOL     -0.221518
     21 C8         -3.2760    4.8220    0.9450 c         1 MOL      0.477878
     22 O5         -3.6080    6.0120    0.9190 o         1 MOL     -0.586964
     23 C9         -0.9720    5.0910    2.0000 c3        1 MOL      0.209492
     24 C10        -0.3190    4.8220    0.6120 c3        1 MOL     -0.283330
     25 C11        -0.2550    4.7070    3.3420 c3        1 MOL     -0.048678
     26 C12         1.1480    5.2730    0.4910 c3        1 MOL     -0.221650
     27 H8         -1.4790    2.3930    1.6430 hn        1 MOL      0.088647
     28 H9         -2.7220    4.7720    2.9800 h1        1 MOL      0.121586
     29 H10        -1.2630    6.1310    2.1370 hc        1 MOL     -0.018442
     30 H11        -0.8410    5.3070   -0.2200 hc        1 MOL      0.132249
     31 H12        -0.3870    3.7660    0.3850 hc        1 MOL      0.132249
     32 H13         0.6840    5.2480    3.4010 hc        1 MOL      0.001353
     33 H14        -0.8310    5.1060    4.1800 hc        1 MOL      0.001353
     34 H15         0.1100    3.6900    3.4800 hc        1 MOL      0.001353
     35 H16         1.7450    4.6690    1.1680 hc        1 MOL      0.063840
     36 H17         1.6760    5.1940   -0.4690 hc        1 MOL      0.063840
     37 H18         1.2210    6.3240    0.7680 hc        1 MOL      0.063840
     38 N3         -3.8310    3.9400    0.1690 n         1 MOL     -0.205492
     39 C13        -4.9210    4.1930   -0.8150 c3        1 MOL      0.012515
     40 C14        -6.1220    3.2360   -0.7130 c         1 MOL      0.411848
     41 O6         -7.0270    3.3310   -1.6080 o         1 MOL     -0.456055
     42 C15        -4.3800    4.1860   -2.2560 c3        1 MOL     -0.072723
     43 C16        -3.4770    2.9780   -2.6940 c         1 MOL      0.810970
     44 O7         -3.1180    2.9490   -3.8920 o         1 MOL     -0.724175
     45 O8         -3.2310    2.0260   -1.9560 o         1 MOL     -0.724175
     46 H19        -3.4410    3.0130    0.1970 hn        1 MOL      0.040791
     47 H20        -5.3160    5.1840   -0.6150 h1        1 MOL      0.077851
     48 H21        -3.7180    5.0430   -2.3610 hc        1 MOL     -0.003006
     49 H22        -5.2730    4.2920   -2.8670 hc        1 MOL     -0.003006
     50 N4         -6.1830    2.3420    0.3100 n         1 MOL     -0.289018
     51 C17        -7.4950    1.8360    0.7300 c3        1 MOL     -0.173529
     52 C18        -8.0280    0.8830   -0.2980 c         1 MOL      0.400060
     53 O9         -9.0710    1.1610   -0.8810 o         1 MOL     -0.569185
     54 H23        -5.3760    2.0830    0.8480 hn        1 MOL      0.244949
     55 H24        -8.2260    2.6400    0.8610 h1        1 MOL      0.086556
     56 H25        -7.3160    1.3560    1.6850 h1        1 MOL      0.086556
     57 N5         -7.2960   -0.1680   -0.4920 n         1 MOL     -0.054970
     58 C19        -7.6590   -1.3480   -1.3670 c3        1 MOL      0.049487
     59 C20        -7.5480   -2.6630   -0.5200 c         1 MOL      0.328887
     60 O10        -7.8060   -3.7040   -1.1080 o         1 MOL     -0.520396
     61 C21        -6.6820   -1.3800   -2.5970 c3        1 MOL     -0.037177
     62 C22        -5.2300   -1.2080   -2.2890 c         1 MOL      0.707840
     63 O11        -4.4660   -0.6570   -3.1370 o         1 MOL     -0.728937
     64 O12        -4.7740   -1.5580   -1.2470 o         1 MOL     -0.728937
     65 H26        -6.4440   -0.2810    0.0250 hn        1 MOL      0.052411
     66 H27        -8.7100   -1.2750   -1.6760 h1        1 MOL      0.048430
     67 H28        -6.9090   -0.6110   -3.3390 hc        1 MOL      0.007047
     68 H29        -6.7920   -2.3800   -3.0250 hc        1 MOL      0.007047
     69 N6         -7.0980   -2.6440    0.7150 n         1 MOL     -0.152266
     70 C23        -6.8150   -3.8390    1.5360 c3        1 MOL     -0.135887
     71 C24        -5.4020   -4.4560    1.2570 c         1 MOL      0.561489
     72 O13        -5.3250   -5.6890    1.5450 o         1 MOL     -0.581321
     73 H30        -6.8660   -1.7200    1.0610 hn        1 MOL      0.131603
     74 H31        -7.5580   -4.5820    1.2610 h1        1 MOL      0.077454
     75 H32        -6.8420   -3.5150    2.5740 h1        1 MOL      0.077454
     76 N7         -4.3760   -3.6830    0.7750 n         1 MOL     -0.141997
     77 C25        -3.0450   -4.2000    0.6140 c3        1 MOL     -0.229617
     78 C26        -1.8620   -3.2330    0.7130 c         1 MOL      0.792657
     79 O14        -1.9600   -2.0430    0.5910 o         1 MOL     -0.703332
     80 C27        -2.9670   -5.0040   -0.6740 c3        1 MOL      0.073953
     81 C28        -3.4080   -4.4790   -1.9670 c3        1 MOL     -0.149776
     82 C29        -2.4170   -3.7140   -2.7640 c         1 MOL      0.602996
     83 N8         -2.1160   -4.1220   -3.9660 n         1 MOL     -0.709042
     84 O15        -1.8520   -2.6950   -2.3240 o         1 MOL     -0.601111
     85 H33        -4.5900   -2.7290    0.5260 hn        1 MOL      0.120243
     86 H34        -2.9230   -4.9150    1.4290 h1        1 MOL      0.067532
     87 H35        -3.6080   -5.8730   -0.5430 hc        1 MOL     -0.011005
     88 H36        -1.9600   -5.4090   -0.8060 hc        1 MOL     -0.011005
     89 H37        -4.3430   -3.9380   -1.7680 hc        1 MOL      0.073053
     90 H38        -3.7230   -5.2870   -2.6190 hc        1 MOL      0.073053
     91 H39        -2.3750   -5.0290   -4.3160 hn        1 MOL      0.339096
     92 H40        -1.3630   -3.6690   -4.4670 hn        1 MOL      0.339096
     93 N9         -0.6660   -3.7780    0.9690 n         1 MOL     -0.477453
     94 C30         0.5590   -3.0240    1.3370 c3        1 MOL      0.078828
     95 C31         1.6020   -3.3920    0.2320 c         1 MOL      0.403958
     96 O16         2.2290   -4.4520    0.2190 o         1 MOL     -0.554430
     97 C32         1.1100   -3.2690    2.7180 c3        1 MOL      0.212299
     98 C33         2.0650   -2.1200    3.0510 c3        1 MOL     -0.214846
     99 C34         0.0700   -3.3720    3.8710 c3        1 MOL     -0.214846
    100 H41        -0.6750   -4.7490    1.2550 hn        1 MOL      0.279231
    101 H42         0.3940   -1.9490    1.2570 h1        1 MOL      0.148367
    102 H43         1.6480   -4.2170    2.6380 hc        1 MOL     -0.044503
    103 H44         2.8080   -2.4020    3.7950 hc        1 MOL      0.033118
    104 H45         2.7100   -1.8470    2.2210 hc        1 MOL      0.033118
    105 H46         1.5090   -1.2350    3.3640 hc        1 MOL      0.033118
    106 H47        -0.7100   -4.0980    3.6020 hc        1 MOL      0.033118
    107 H48         0.4950   -3.5690    4.8440 hc        1 MOL      0.033118
    108 H49        -0.4420   -2.4090    3.8810 hc        1 MOL      0.033118
    109 N10         1.8630   -2.3980   -0.6140 n         1 MOL     -0.160336
    110 C35         3.0010   -2.3570   -1.5080 c3        1 MOL      0.037973
    111 C36         4.2610   -1.8760   -0.7320 c         1 MOL      0.412844
    112 O17         4.2170   -1.2740    0.3470 o         1 MOL     -0.332718
    113 C37         2.7770   -1.4630   -2.6200 c3        1 MOL     -0.269734
    114 C38         1.7530   -1.8480   -3.6410 c         1 MOL      0.706194
    115 N11         0.4790   -1.4630   -3.3970 n         1 MOL     -0.790227
    116 O18         2.1020   -2.3430   -4.7260 o         1 MOL     -0.614928
    117 H50         1.3760   -1.5160   -0.5250 hn        1 MOL      0.029682
    118 H51         3.2770   -3.3300   -1.9060 h1        1 MOL      0.056463
    119 H52         3.6870   -1.2840   -3.2000 hc        1 MOL      0.087231
    120 H53         2.4170   -0.5020   -2.2320 hc        1 MOL      0.087231
    121 H54         0.2800   -0.8730   -2.6050 hn        1 MOL      0.360466
    122 H55        -0.2420   -1.9200   -3.9440 hn        1 MOL      0.360466
    123 N12         5.4340   -2.1310   -1.2870 n         1 MOL     -0.524353
    124 C39         6.7200   -1.7120   -0.6460 c3        1 MOL      0.228577
    125 C40         6.9040   -0.1560   -0.5480 c         1 MOL      0.604991
    126 O19         7.2840    0.3750    0.5080 o         1 MOL     -0.527718
    127 C41         7.9000   -2.4670   -1.3500 c3        1 MOL     -0.313107
    128 C42         9.1590   -2.1860   -0.5390 ca        1 MOL      0.287229
    129 C43         9.4200   -2.9510    0.6090 ca        1 MOL     -0.409747
    130 C44        10.1330   -1.1870   -0.9210 ca        1 MOL     -0.409747
    131 C45        10.5130   -2.6250    1.4210 ca        1 MOL      0.005621
    132 C46        11.2300   -0.8820   -0.0420 ca        1 MOL      0.005621
    133 C47        11.4380   -1.6850    1.0560 ca        1 MOL      0.072021
    134 O20        12.3950   -1.2640    1.9660 oh        1 MOL     -0.470766
    135 H56         5.5080   -2.7340   -2.0870 hn        1 MOL      0.317785
    136 H57         6.7260   -2.0620    0.3880 h1        1 MOL      0.071758
    137 H58         7.9340   -2.2730   -2.4230 hc        1 MOL      0.088898
    138 H59         7.5410   -3.4840   -1.2050 hc        1 MOL      0.088898
    139 H60         8.7440   -3.7340    0.9450 ha        1 MOL      0.179509
    140 H61         9.7930   -0.6360   -1.7840 ha        1 MOL      0.179509
    141 H62        10.6910   -3.1490    2.3420 ha        1 MOL      0.097507
    142 H63        11.9240   -0.0690   -0.1610 ha        1 MOL      0.097507
    143 H64        12.8910   -0.5730    1.5290 ho        1 MOL      0.356676
    144 N13         6.5390    0.5900   -1.5920 n         1 MOL     -0.598479
    145 C48         6.3250    2.0190   -1.5740 c3        1 MOL      0.210623
    146 C49         5.4180    2.4910   -0.4150 c         1 MOL      0.221644
    147 O21         5.6030    3.6340    0.0920 o         1 MOL     -0.499095
    148 C50         5.5870    2.3560   -2.8460 c3        1 MOL      0.058306
    149 C51         5.3920    3.8390   -3.0320 c3        1 MOL     -0.268202
    150 C52         5.0240    4.2120   -4.4370 c         1 MOL      0.771468
    151 O22         3.8610    4.5230   -4.7530 o         1 MOL     -0.742732
    152 O23         5.8830    4.1900   -5.3560 o         1 MOL     -0.742732
    153 H65         6.3800    0.0980   -2.4610 hn        1 MOL      0.279663
    154 H66         7.2250    2.6160   -1.4970 h1        1 MOL      0.055602
    155 H67         4.6300    1.8710   -2.6780 hc        1 MOL     -0.015481
    156 H68         6.1660    1.9780   -3.6880 hc        1 MOL     -0.015481
    157 H69         6.3600    4.3150   -2.8790 hc        1 MOL      0.039792
    158 H70         4.6740    4.1730   -2.2680 hc        1 MOL      0.039792
    159 N14         4.5920    1.5940    0.1350 n         1 MOL     -0.013660
    160 C53         3.7250    1.8680    1.3280 c3        1 MOL     -0.023379
    161 C54         4.4490    1.4440    2.6150 c         1 MOL      0.376011
    162 O24         4.3470    2.0510    3.7200 o         1 MOL     -0.558994
    163 C55         2.3320    1.2920    1.1990 c3        1 MOL      0.022435
    164 C56         1.6320    1.5050   -0.1840 c3        1 MOL     -0.136847
    165 C57         0.2650    0.8880   -0.2960 c         1 MOL      0.492623
    166 O25        -0.7610    1.5240    0.0420 o         1 MOL     -0.561802
    167 O26         0.0700   -0.2350   -0.8280 o         1 MOL     -0.561802
    168 H71         4.4460    0.6860   -0.2940 hn        1 MOL      0.121371
    169 H72         3.6100    2.9320    1.5450 h1        1 MOL      0.079055
    170 H73         1.6760    1.6010    2.0040 hc        1 MOL      0.066431
    171 H74         2.4630    0.2090    1.2570 hc        1 MOL      0.066431
    172 H75         2.2820    1.1700   -1.0070 hc        1 MOL      0.089415
    173 H76         1.5470    2.5810   -0.2880 hc        1 MOL      0.089415
    174 N15         5.2300    0.3600    2.6490 n         1 MOL      0.036040
    175 C58         5.8660   -0.3460    3.7640 c3        1 MOL     -0.317110
    176 H77         6.9360   -0.1390    3.7610 h1        1 MOL      0.107800
    177 H78         5.4320   -0.0050    4.7050 h1        1 MOL      0.107800
    178 H79         5.7030   -1.4180    3.6550 h1        1 MOL      0.107800
    179 H80         5.3890   -0.1240    1.7760 hn        1 MOL     -0.005702
    180 Ca1        -2.4770   -0.2100   -1.1040 Ca        1 MOL      1.698472
    181 O27        -1.4260    0.6260   -3.4910 oh        1 MOL     -0.863973
    182 H81        -2.0910    1.2760   -3.7220 ho        1 MOL      0.404254
    183 H82        -1.0650    0.3460   -4.3340 ho        1 MOL      0.404254
@<TRIPOS>BOND
     1    1    2 1   
     2    1    4 1   
     3    1    5 1   
     4    1    6 1   
     5    2    3 2   
     6    2    7 1   
     7    7    8 1   
     8    7   15 1   
     9    8    9 1   
    10    8   11 1   
    11    8   16 1   
    12    9   10 2   
    13    9   19 1   
    14   11   12 1   
    15   11   17 1   
    16   11   18 1   
    17   12   13 1   
    18   12   14 1   
    19   19   20 1   
    20   19   27 1   
    21   20   21 1   
    22   20   23 1   
    23   20   28 1   
    24   21   22 2   
    25   21   38 1   
    26   23   24 1   
    27   23   25 1   
    28   23   29 1   
    29   24   26 1   
    30   24   30 1   
    31   24   31 1   
    32   25   32 1   
    33   25   33 1   
    34   25   34 1   
    35   26   35 1   
    36   26   36 1   
    37   26   37 1   
    38   38   39 1   
    39   38   46 1   
    40   39   40 1   
    41   39   42 1   
    42   39   47 1   
    43   40   41 2   
    44   40   50 1   
    45   42   43 1   
    46   42   48 1   
    47   42   49 1   
    48   43   44 1   
    49   43   45 1   
    50   50   51 1   
    51   50   54 1   
    52   51   52 1   
    53   51   55 1   
    54   51   56 1   
    55   52   53 2   
    56   52   57 1   
    57   57   58 1   
    58   57   65 1   
    59   58   59 1   
    60   58   61 1   
    61   58   66 1   
    62   59   60 2   
    63   59   69 1   
    64   61   62 1   
    65   61   67 1   
    66   61   68 1   
    67   62   63 1   
    68   62   64 1   
    69   69   70 1   
    70   69   73 1   
    71   70   71 1   
    72   70   74 1   
    73   70   75 1   
    74   71   72 2   
    75   71   76 1   
    76   76   77 1   
    77   76   85 1   
    78   77   78 1   
    79   77   80 1   
    80   77   86 1   
    81   78   79 2   
    82   78   93 1   
    83   80   81 1   
    84   80   87 1   
    85   80   88 1   
    86   81   82 1   
    87   81   89 1   
    88   81   90 1   
    89   82   83 1   
    90   82   84 2   
    91   83   91 1   
    92   83   92 1   
    93   93   94 1   
    94   93  100 1   
    95   94   95 1   
    96   94   97 1   
    97   94  101 1   
    98   95   96 2   
    99   95  109 1   
   100   97   98 1   
   101   97   99 1   
   102   97  102 1   
   103   98  103 1   
   104   98  104 1   
   105   98  105 1   
   106   99  106 1   
   107   99  107 1   
   108   99  108 1   
   109  109  110 1   
   110  109  117 1   
   111  110  111 1   
   112  110  113 1   
   113  110  118 1   
   114  111  112 2   
   115  111  123 1   
   116  113  114 1   
   117  113  119 1   
   118  113  120 1   
   119  114  115 1   
   120  114  116 2   
   121  115  121 1   
   122  115  122 1   
   123  123  124 1   
   124  123  135 1   
   125  124  125 1   
   126  124  127 1   
   127  124  136 1   
   128  125  126 2   
   129  125  144 1   
   130  127  128 1   
   131  127  137 1   
   132  127  138 1   
   133  128  129 ar  
   134  128  130 ar  
   135  129  131 ar  
   136  129  139 1   
   137  130  132 ar  
   138  130  140 1   
   139  131  133 ar  
   140  131  141 1   
   141  132  133 ar  
   142  132  142 1   
   143  133  134 1   
   144  134  143 1   
   145  144  145 1   
   146  144  153 1   
   147  145  146 1   
   148  145  148 1   
   149  145  154 1   
   150  146  147 2   
   151  146  159 1   
   152  148  149 1   
   153  148  155 1   
   154  148  156 1   
   155  149  150 1   
   156  149  157 1   
   157  149  158 1   
   158  150  151 1   
   159  150  152 1   
   160  159  160 1   
   161  159  168 1   
   162  160  161 1   
   163  160  163 1   
   164  160  169 1   
   165  161  162 2   
   166  161  174 1   
   167  163  164 1   
   168  163  170 1   
   169  163  171 1   
   170  164  165 1   
   171  164  172 1   
   172  164  173 1   
   173  165  166 1   
   174  165  167 1   
   175  174  175 1   
   176  174  179 1   
   177  175  176 1   
   178  175  177 1   
   179  175  178 1   
   180  181  182 1   
   181  181  183 1   
@<TRIPOS>SUBSTRUCTURE
     1 MOL         1 TEMP              0 ****  ****    0 ROOT
