@<TRIPOS>MOLECULE
MOL
  175   173     1     0     0
SMALL
resp


@<TRIPOS>ATOM
      1 C1          1.0210    4.0640    5.5500 c3        1 MOL     -0.388260
      2 C2          0.4430    3.9910    4.1560 c         1 MOL      0.693511
      3 O1          1.1120    4.1680    3.1660 o         1 MOL     -0.507124
      4 H1          1.9670    3.5210    5.5790 hc        1 MOL      0.097127
      5 H2          1.1930    5.1070    5.8190 hc        1 MOL      0.097127
      6 H3          0.3240    3.6160    6.2570 hc        1 MOL      0.097127
      7 N1         -0.9070    3.8510    4.0220 n         1 MOL     -0.599375
      8 C3         -1.7000    3.5950    2.7820 c3        1 MOL      0.129845
      9 C4         -1.6790    4.7920    1.8080 c         1 MOL      0.579622
     10 O2         -1.5780    5.9910    2.1400 o         1 MOL     -0.565644
     11 C5         -3.1550    3.2400    2.9810 c3        1 MOL     -0.293844
     12 C6         -3.9600    2.9110    1.7510 c         1 MOL      0.740853
     13 O3         -3.4330    2.2670    0.7910 o         1 MOL     -0.660806
     14 O4         -5.1670    3.1550    1.7700 o         1 MOL     -0.660806
     15 H4         -1.4730    3.6040    4.8320 hn        1 MOL      0.299206
     16 H5         -1.2660    2.7350    2.2590 h1        1 MOL      0.034971
     17 H6         -3.6830    4.0820    3.4330 hc        1 MOL      0.042705
     18 H7         -3.1450    2.3840    3.6510 hc        1 MOL      0.042705
     19 N2         -1.6390    4.3920    0.5080 n         1 MOL     -0.560008
     20 C7         -1.5670    5.3240   -0.6280 c3        1 MOL      0.288489
     21 C8         -2.4930    4.9080   -1.8240 c         1 MOL      0.459180
     22 O5         -2.3440    5.4210   -2.9580 o         1 MOL     -0.565707
     23 C9         -0.1680    5.6450   -0.9140 c3        1 MOL     -0.222642
     24 H8         -1.5350    3.4110    0.2900 hn        1 MOL      0.498125
     25 H9         -2.0070    6.2360   -0.2400 h1        1 MOL      0.008966
     26 H10        -0.0850    6.4310   -1.6620 hc        1 MOL      0.044476
     27 H11         0.3580    5.7780    0.0270 hc        1 MOL      0.044476
     28 H12         0.3290    4.7320   -1.2720 hc        1 MOL      0.044476
     29 N3         -3.4970    4.0100   -1.6620 n         1 MOL     -0.469439
     30 C10        -4.4160    3.7040   -2.7440 c3        1 MOL      0.192617
     31 C11        -5.6810    3.0150   -2.3350 c         1 MOL      0.310257
     32 O6         -6.5340    2.8410   -3.1840 o         1 MOL     -0.524105
     33 C12        -3.6500    2.7580   -3.7090 c3        1 MOL     -0.117332
     34 C13        -3.2620    1.4250   -3.1590 c         1 MOL      0.694573
     35 O7         -2.4840    0.6970   -3.8730 o         1 MOL     -0.712881
     36 O8         -3.5050    1.0060   -1.9990 o         1 MOL     -0.712881
     37 H13        -3.6340    3.5310   -0.7800 hn        1 MOL      0.162783
     38 H14        -4.7130    4.5530   -3.3480 h1        1 MOL      0.052434
     39 H15        -2.7500    3.1850   -4.1560 hc        1 MOL      0.035534
     40 H16        -4.3700    2.7160   -4.5280 hc        1 MOL      0.035534
     41 N4         -5.7840    2.4440   -1.1050 n         1 MOL     -0.068976
     42 C14        -6.9270    1.7550   -0.6390 c3        1 MOL     -0.403837
     43 C15        -7.1640    0.2600   -1.0890 c         1 MOL      0.458097
     44 O9         -8.2460   -0.3190   -0.9240 o         1 MOL     -0.590658
     45 H17        -5.1010    2.5940   -0.3810 hn        1 MOL      0.178033
     46 H18        -7.7410    2.3540   -1.0430 h1        1 MOL      0.159323
     47 H19        -7.0500    1.8310    0.4320 h1        1 MOL      0.159323
     48 N5         -6.0930   -0.4610   -1.5450 n         1 MOL      0.035580
     49 C16        -6.2510   -1.7810   -2.1130 c3        1 MOL     -0.323005
     50 C17        -6.5780   -2.8560   -1.0660 c         1 MOL      0.615602
     51 O10        -7.0180   -3.9560   -1.4100 o         1 MOL     -0.547289
     52 C18        -5.1200   -2.1230   -3.0560 c3        1 MOL      0.133758
     53 C19        -3.7680   -2.3150   -2.3820 c         1 MOL      0.348555
     54 N6         -2.8410   -2.9970   -2.9920 n         1 MOL     -0.609879
     55 O11        -3.4970   -1.9920   -1.2090 o         1 MOL     -0.199082
     56 H20        -5.2200    0.0420   -1.6270 hn        1 MOL      0.054033
     57 H21        -7.0680   -1.6850   -2.8260 h1        1 MOL      0.136583
     58 H22        -5.0410   -1.4470   -3.9090 hc        1 MOL      0.008420
     59 H23        -5.3730   -3.0250   -3.6170 hc        1 MOL      0.008420
     60 H24        -3.0500   -3.1660   -3.9620 hn        1 MOL      0.319991
     61 H25        -1.8920   -2.7640   -2.7340 hn        1 MOL      0.319991
     62 N7         -6.4120   -2.5640    0.2910 n         1 MOL     -0.384381
     63 C20        -6.5130   -3.5920    1.3660 c3        1 MOL      0.000186
     64 C21        -5.1840   -4.2800    1.7390 c         1 MOL      0.473831
     65 O12        -5.3080   -5.3130    2.4210 o         1 MOL     -0.594635
     66 H26        -5.9660   -1.7110    0.6030 hn        1 MOL      0.255121
     67 H27        -7.3280   -4.2480    1.0630 h1        1 MOL      0.054675
     68 H28        -6.8350   -3.0850    2.2720 h1        1 MOL      0.054675
     69 N8         -4.0290   -3.8540    1.3040 n         1 MOL      0.034865
     70 C22        -2.7480   -4.5230    1.5680 c3        1 MOL     -0.438629
     71 C23        -1.6140   -3.4120    1.6510 c         1 MOL      0.795911
     72 O13        -1.7320   -2.3400    1.0970 o         1 MOL     -0.574698
     73 C24        -2.3000   -5.4320    0.3930 c3        1 MOL      0.621027
     74 C25        -3.1400   -6.7510    0.5070 c3        1 MOL     -0.614539
     75 O14        -2.5630   -4.8830   -0.8590 oh        1 MOL     -0.622703
     76 H29        -3.9740   -2.9800    0.7920 hn        1 MOL     -0.106036
     77 H30        -2.6930   -5.1370    2.4670 h1        1 MOL      0.138224
     78 H31        -1.2330   -5.6100    0.4700 h1        1 MOL     -0.047706
     79 H32        -2.0580   -4.0860   -1.0120 ho        1 MOL      0.338756
     80 H33        -2.7120   -7.4520   -0.2080 hc        1 MOL      0.157252
     81 H34        -2.9510   -7.1480    1.5070 hc        1 MOL      0.157252
     82 H35        -4.2090   -6.5780    0.3750 hc        1 MOL      0.157252
     83 N9         -0.4850   -3.7110    2.2920 n         1 MOL     -0.792800
     84 C26         0.5930   -2.7680    2.2110 c3        1 MOL     -0.057044
     85 C27         1.2900   -3.0720    0.9110 c         1 MOL      0.657693
     86 O15         1.6180   -4.2000    0.6310 o         1 MOL     -0.591629
     87 C28         1.6240   -2.8870    3.3760 c3        1 MOL      0.192220
     88 C29         1.0640   -3.2690    4.7720 c3        1 MOL      0.106601
     89 C30         2.4870   -1.5990    3.3910 c3        1 MOL     -0.177656
     90 C31         2.1700   -3.5030    5.7870 c3        1 MOL     -0.163872
     91 H36        -0.3680   -4.7000    2.4930 hn        1 MOL      0.369303
     92 H37         0.1920   -1.7560    2.2960 h1        1 MOL      0.076233
     93 H38         2.3670   -3.6510    3.1430 hc        1 MOL     -0.000375
     94 H39         0.5430   -4.2270    4.7020 hc        1 MOL     -0.021781
     95 H40         0.4030   -2.5570    5.2710 hc        1 MOL     -0.021781
     96 H41         2.7930   -1.4610    2.3570 hc        1 MOL      0.029295
     97 H42         1.9440   -0.7050    3.7120 hc        1 MOL      0.029295
     98 H43         3.4620   -1.9010    3.7930 hc        1 MOL      0.029295
     99 H44         1.7630   -3.8290    6.7520 hc        1 MOL      0.028308
    100 H45         2.8460   -4.3060    5.5140 hc        1 MOL      0.028308
    101 H46         2.5550   -2.5130    6.0040 hc        1 MOL      0.028308
    102 N10         1.5700   -2.0180    0.1650 n         1 MOL     -0.409749
    103 C32         2.3860   -2.0760   -1.0360 c3        1 MOL     -0.057616
    104 C33         3.8080   -1.5080   -0.8340 c         1 MOL      0.549828
    105 O16         4.0830   -0.7740    0.1400 o         1 MOL     -0.443906
    106 C34         1.6550   -1.3320   -2.2040 c3        1 MOL     -0.331056
    107 C35         0.2400   -1.8860   -2.4400 c         1 MOL      0.784678
    108 O17        -0.7030   -1.3540   -1.7370 o         1 MOL     -0.671333
    109 O18        -0.0770   -2.6440   -3.3880 o         1 MOL     -0.671333
    110 H47         1.3600   -1.1420    0.6050 hn        1 MOL      0.335990
    111 H48         2.4540   -3.1190   -1.3520 h1        1 MOL      0.103088
    112 H49         2.2270   -1.4760   -3.1220 hc        1 MOL      0.092826
    113 H50         1.6900   -0.2440   -2.1020 hc        1 MOL      0.092826
    114 N11         4.7750   -1.8200   -1.6180 n         1 MOL     -0.682877
    115 C36         6.2240   -1.5670   -1.4840 c3        1 MOL      0.594452
    116 C37         6.5260   -0.0880   -1.2700 c         1 MOL      0.250694
    117 O19         7.2230    0.2080   -0.2800 o         1 MOL     -0.513051
    118 C38         7.0240   -2.2810   -2.6630 c3        1 MOL     -0.418413
    119 C39         8.5620   -2.2510   -2.4650 ca        1 MOL      0.238170
    120 C40         9.0870   -3.1820   -1.5390 ca        1 MOL     -0.278344
    121 C41         9.3350   -1.2070   -2.9960 ca        1 MOL     -0.278344
    122 C42        10.3510   -3.0120   -1.0070 ca        1 MOL     -0.004373
    123 C43        10.6150   -1.1330   -2.5220 ca        1 MOL     -0.004373
    124 C44        11.1480   -1.9760   -1.5600 ca        1 MOL     -0.200888
    125 H51         4.5080   -2.4340   -2.3680 hn        1 MOL      0.314042
    126 H52         6.6070   -2.0580   -0.5840 h1        1 MOL     -0.008843
    127 H53         6.8100   -1.7030   -3.5630 hc        1 MOL      0.097982
    128 H54         6.6340   -3.2930   -2.6410 hc        1 MOL      0.097982
    129 H55         8.4420   -3.9640   -1.1730 ha        1 MOL      0.153856
    130 H56         8.8800   -0.3480   -3.4560 ha        1 MOL      0.153856
    131 H57        10.6420   -3.7710   -0.2960 ha        1 MOL      0.089659
    132 H58        11.2530   -0.3090   -2.7950 ha        1 MOL      0.089659
    133 H59        12.1300   -1.8470   -1.1400 ha        1 MOL      0.117456
    134 N12         5.9780    0.8830   -1.9860 n         1 MOL     -0.037939
    135 C45         6.1000    2.2950   -1.6680 c3        1 MOL      0.040173
    136 C46         5.6040    2.7820   -0.2980 c         1 MOL      0.198483
    137 O20         6.0160    3.7920    0.2470 o         1 MOL     -0.478271
    138 C47         5.3450    3.0510   -2.7600 c3        1 MOL      0.086620
    139 C48         5.1530    2.0390   -3.8450 c3        1 MOL     -0.083838
    140 C49         5.1050    0.7280   -3.1630 c3        1 MOL     -0.211163
    141 H60         7.1380    2.6310   -1.7240 h1        1 MOL      0.059774
    142 H61         4.4080    3.4870   -2.4260 hc        1 MOL      0.007650
    143 H62         5.9830    3.8720   -3.1100 hc        1 MOL      0.007650
    144 H63         4.2100    2.2710   -4.3420 hc        1 MOL      0.045862
    145 H64         5.9830    2.0870   -4.5540 hc        1 MOL      0.045862
    146 H65         4.0620    0.5740   -2.9060 h1        1 MOL      0.100570
    147 H66         5.5760   -0.0870   -3.7200 h1        1 MOL      0.100570
    148 N13         4.6270    2.0610    0.2470 n         1 MOL      0.093243
    149 C50         4.0340    2.3170    1.5750 c3        1 MOL     -0.358447
    150 C51         4.9310    1.7410    2.7290 c         1 MOL      0.565937
    151 O21         5.0490    2.2880    3.8110 o         1 MOL     -0.559785
    152 C52         2.6660    1.6500    1.4840 c3        1 MOL     -0.073311
    153 C53         1.7760    2.1880    0.3140 c3        1 MOL      0.055609
    154 C54         0.4250    1.4710    0.3320 c         1 MOL      0.464337
    155 O22        -0.5490    1.9800   -0.2390 o         1 MOL     -0.699504
    156 O23         0.1930    0.4540    1.0170 o         1 MOL     -0.699504
    157 H67         4.1240    1.3790   -0.3000 hn        1 MOL      0.127609
    158 H68         3.9400    3.3940    1.7310 h1        1 MOL      0.154824
    159 H69         2.1230    1.7030    2.4270 hc        1 MOL      0.056453
    160 H70         2.7690    0.5760    1.4020 hc        1 MOL      0.056453
    161 H71         2.2670    2.2860   -0.6500 hc        1 MOL      0.053014
    162 H72         1.5040    3.2220    0.5310 hc        1 MOL      0.053014
    163 N14         5.6080    0.6260    2.4540 n         1 MOL     -0.095426
    164 C55         6.3420   -0.1630    3.4640 c3        1 MOL     -0.238556
    165 H73         7.4000    0.1020    3.4340 h1        1 MOL      0.087218
    166 H74         5.9430    0.0520    4.4560 h1        1 MOL      0.087218
    167 H75         6.2290   -1.2260    3.2490 h1        1 MOL      0.087218
    168 H76         5.4570    0.2540    1.5310 hn        1 MOL      0.104491
    169 Ca1        -2.2110    0.0200   -0.0540 Ca        1 MOL      1.619372
    170 O24        -1.8600    0.0380    2.7070 oh        1 MOL     -0.773111
    171 H77        -0.9820    0.2030    2.3680 ho        1 MOL      0.394432
    172 H78        -1.8490    0.3670    3.5990 ho        1 MOL      0.394432
    173 O25        -4.4200   -0.3620    1.5310 oh        1 MOL     -0.773111
    174 H79        -5.2330   -0.0800    1.9530 ho        1 MOL      0.394432
    175 H80        -3.8780   -0.6890    2.2450 ho        1 MOL      0.394432
@<TRIPOS>BOND
     1    1    2 1   
     2    1    4 1   
     3    1    5 1   
     4    1    6 1   
     5    2    3 2   
     6    2    7 1   
     7    7    8 1   
     8    7   15 1   
     9    8    9 1   
    10    8   11 1   
    11    8   16 1   
    12    9   10 2   
    13    9   19 1   
    14   11   12 1   
    15   11   17 1   
    16   11   18 1   
    17   12   13 1   
    18   12   14 1   
    19   19   20 1   
    20   19   24 1   
    21   20   21 1   
    22   20   23 1   
    23   20   25 1   
    24   21   22 2   
    25   21   29 1   
    26   23   26 1   
    27   23   27 1   
    28   23   28 1   
    29   29   30 1   
    30   29   37 1   
    31   30   31 1   
    32   30   33 1   
    33   30   38 1   
    34   31   32 2   
    35   31   41 1   
    36   33   34 1   
    37   33   39 1   
    38   33   40 1   
    39   34   35 1   
    40   34   36 1   
    41   41   42 1   
    42   41   45 1   
    43   42   43 1   
    44   42   46 1   
    45   42   47 1   
    46   43   44 2   
    47   43   48 1   
    48   48   49 1   
    49   48   56 1   
    50   49   50 1   
    51   49   52 1   
    52   49   57 1   
    53   50   51 2   
    54   50   62 1   
    55   52   53 1   
    56   52   58 1   
    57   52   59 1   
    58   53   54 1   
    59   53   55 2   
    60   54   60 1   
    61   54   61 1   
    62   62   63 1   
    63   62   66 1   
    64   63   64 1   
    65   63   67 1   
    66   63   68 1   
    67   64   65 2   
    68   64   69 1   
    69   69   70 1   
    70   69   76 1   
    71   70   71 1   
    72   70   73 1   
    73   70   77 1   
    74   71   72 2   
    75   71   83 1   
    76   73   74 1   
    77   73   75 1   
    78   73   78 1   
    79   74   80 1   
    80   74   81 1   
    81   74   82 1   
    82   75   79 1   
    83   83   84 1   
    84   83   91 1   
    85   84   85 1   
    86   84   87 1   
    87   84   92 1   
    88   85   86 2   
    89   85  102 1   
    90   87   88 1   
    91   87   89 1   
    92   87   93 1   
    93   88   90 1   
    94   88   94 1   
    95   88   95 1   
    96   89   96 1   
    97   89   97 1   
    98   89   98 1   
    99   90   99 1   
   100   90  100 1   
   101   90  101 1   
   102  102  103 1   
   103  102  110 1   
   104  103  104 1   
   105  103  106 1   
   106  103  111 1   
   107  104  105 2   
   108  104  114 1   
   109  106  107 1   
   110  106  112 1   
   111  106  113 1   
   112  107  108 1   
   113  107  109 1   
   114  114  115 1   
   115  114  125 1   
   116  115  116 1   
   117  115  118 1   
   118  115  126 1   
   119  116  117 2   
   120  116  134 1   
   121  118  119 1   
   122  118  127 1   
   123  118  128 1   
   124  119  120 ar  
   125  119  121 ar  
   126  120  122 ar  
   127  120  129 1   
   128  121  123 ar  
   129  121  130 1   
   130  122  124 ar  
   131  122  131 1   
   132  123  124 ar  
   133  123  132 1   
   134  124  133 1   
   135  134  135 1   
   136  134  140 1   
   137  135  136 1   
   138  135  138 1   
   139  135  141 1   
   140  136  137 2   
   141  136  148 1   
   142  138  139 1   
   143  138  142 1   
   144  138  143 1   
   145  139  140 1   
   146  139  144 1   
   147  139  145 1   
   148  140  146 1   
   149  140  147 1   
   150  148  149 1   
   151  148  157 1   
   152  149  150 1   
   153  149  152 1   
   154  149  158 1   
   155  150  151 2   
   156  150  163 1   
   157  152  153 1   
   158  152  159 1   
   159  152  160 1   
   160  153  154 1   
   161  153  161 1   
   162  153  162 1   
   163  154  155 1   
   164  154  156 1   
   165  163  164 1   
   166  163  168 1   
   167  164  165 1   
   168  164  166 1   
   169  164  167 1   
   170  170  171 1   
   171  170  172 1   
   172  173  174 1   
   173  173  175 1   
@<TRIPOS>SUBSTRUCTURE
     1 MOL         1 TEMP              0 ****  ****    0 ROOT
