@<TRIPOS>MOLECULE
MOL
  186   183     1     0     0
SMALL
resp


@<TRIPOS>ATOM
      1 C1          0.7950   -2.1050    6.3900 c3        1 MOL     -0.354891
      2 C2          1.0610   -1.8680    4.8890 c         1 MOL      0.725398
      3 O1          0.2080   -2.1640    4.0750 o         1 MOL     -0.544676
      4 H1          1.0200   -1.1950    6.9460 hc        1 MOL      0.084416
      5 H2         -0.2520   -2.3700    6.5370 hc        1 MOL      0.084416
      6 H3          1.4300   -2.9150    6.7480 hc        1 MOL      0.084416
      7 N1          2.2780   -1.5320    4.4730 n         1 MOL     -0.734178
      8 C3          2.6630   -1.7510    3.0660 c3        1 MOL      0.382168
      9 C4          2.7710   -3.2910    2.8850 c         1 MOL      0.488929
     10 O2          3.1990   -4.0530    3.7870 o         1 MOL     -0.589285
     11 C5          3.8800   -0.8800    2.8470 c3        1 MOL     -0.251587
     12 C6          4.5030   -1.0520    1.4410 c         1 MOL      0.701672
     13 O3          5.7130   -1.3300    1.4640 o         1 MOL     -0.681714
     14 O4          3.7570   -0.8330    0.4370 o         1 MOL     -0.681714
     15 H4          2.9760   -1.4150    5.1970 hn        1 MOL      0.337836
     16 H5          1.9010   -1.2930    2.4320 h1        1 MOL      0.030680
     17 H6          4.5130   -0.9570    3.7350 hc        1 MOL      0.044043
     18 H7          3.6130    0.1790    2.8580 hc        1 MOL      0.044043
     19 N2          2.5780   -3.7500    1.6520 n         1 MOL     -0.160618
     20 C7          2.7130   -5.1520    1.1060 c3        1 MOL     -0.076611
     21 C8          3.7150   -5.2620   -0.1010 c         1 MOL      0.589303
     22 O5          4.3470   -6.2810   -0.2430 o         1 MOL     -0.593245
     23 C9          1.3420   -5.6380    0.6300 c3        1 MOL      0.253833
     24 C10         0.3630   -5.6160    1.8060 c3        1 MOL     -0.035993
     25 C11         1.4130   -7.0720    0.1360 c3        1 MOL     -0.357406
     26 C12        -1.0260   -6.0670    1.3230 c3        1 MOL     -0.256159
     27 H8          2.3300   -2.9610    1.0710 hn        1 MOL     -0.139604
     28 H9          2.9900   -5.7320    1.9890 h1        1 MOL      0.062133
     29 H10         1.0040   -4.9770   -0.1760 hc        1 MOL      0.005261
     30 H11         0.3100   -4.6830    2.3610 hc        1 MOL      0.039909
     31 H12         0.6490   -6.4080    2.4970 hc        1 MOL      0.039909
     32 H13         1.2400   -7.7420    0.9720 hc        1 MOL      0.077517
     33 H14         0.6010   -7.2820   -0.5550 hc        1 MOL      0.077517
     34 H15         2.3300   -7.3670   -0.3660 hc        1 MOL      0.077517
     35 H16        -1.3460   -5.7530    0.3270 hc        1 MOL      0.056245
     36 H17        -1.1230   -7.1290    1.4940 hc        1 MOL      0.056245
     37 H18        -1.8250   -5.5540    1.8560 hc        1 MOL      0.056245
     38 N3          3.7570   -4.2060   -0.9680 n         1 MOL     -0.385114
     39 C13         4.4160   -4.2080   -2.2900 c3        1 MOL      0.039193
     40 C14         5.7190   -3.3920   -2.2510 c         1 MOL      0.387124
     41 O6          6.1840   -2.8710   -3.2950 o         1 MOL     -0.537734
     42 C15         3.4610   -3.7730   -3.4090 c3        1 MOL     -0.117201
     43 C16         2.6330   -2.5030   -3.2320 c         1 MOL      0.911477
     44 O7          3.0370   -1.6850   -2.4180 o         1 MOL     -0.779254
     45 O8          1.5380   -2.3920   -3.8670 o         1 MOL     -0.779254
     46 H19         3.2880   -3.3600   -0.6690 hn        1 MOL      0.308257
     47 H20         4.7040   -5.2330   -2.5400 h1        1 MOL      0.086523
     48 H21         2.7680   -4.6050   -3.5750 hc        1 MOL      0.012614
     49 H22         3.9510   -3.6820   -4.3740 hc        1 MOL      0.012614
     50 N4          6.2730   -3.0900   -1.0890 n         1 MOL     -0.266566
     51 C17         7.6570   -2.5270   -0.9180 c3        1 MOL     -0.183476
     52 C18         7.9220   -1.1040   -1.3200 c         1 MOL      0.586078
     53 O9          9.0550   -0.6390   -1.2070 o         1 MOL     -0.617808
     54 H23         5.7760   -3.3940   -0.2670 hn        1 MOL      0.238847
     55 H24         8.4130   -3.2090   -1.3360 h1        1 MOL      0.103180
     56 H25         7.8980   -2.4480    0.1380 h1        1 MOL      0.103180
     57 N5          6.8850   -0.3100   -1.7400 n         1 MOL     -0.326429
     58 C19         7.0290    1.0750   -2.1700 c3        1 MOL     -0.145809
     59 C20         6.8820    2.0970   -1.0700 c         1 MOL      0.421185
     60 O10         6.8520    3.3310   -1.3210 o         1 MOL     -0.561497
     61 C21         6.1830    1.3020   -3.4010 c3        1 MOL     -0.028071
     62 C22         4.6610    1.2030   -3.0580 c         1 MOL      0.565614
     63 O11         4.2460    1.4810   -1.8710 o         1 MOL     -0.668862
     64 O12         3.8160    0.6350   -3.7790 o         1 MOL     -0.668862
     65 H26         5.9510   -0.6660   -1.5970 hn        1 MOL      0.368282
     66 H27         8.0840    1.2730   -2.3690 h1        1 MOL      0.146594
     67 H28         6.4720    0.7350   -4.2960 hc        1 MOL      0.027538
     68 H29         6.4430    2.2920   -3.7810 hc        1 MOL      0.027538
     69 N6          6.7980    1.7250    0.2500 n         1 MOL     -0.186343
     70 C23         7.0050    2.4800    1.4630 c3        1 MOL     -0.007826
     71 C24         5.9660    3.5890    1.6690 c         1 MOL      0.412923
     72 O13         6.2550    4.5710    2.4050 o         1 MOL     -0.594655
     73 H30         6.7230    0.7330    0.3900 hn        1 MOL      0.194992
     74 H31         8.0300    2.8520    1.5300 h1        1 MOL      0.056117
     75 H32         6.9040    1.8250    2.3270 h1        1 MOL      0.056117
     76 N7          4.8170    3.4470    1.0510 n         1 MOL     -0.052159
     77 C25         3.5650    4.2470    1.2520 c3        1 MOL     -0.228515
     78 C26         2.3980    3.2950    1.1780 c         1 MOL      0.634832
     79 O14         2.4520    2.1900    0.5840 o         1 MOL     -0.644183
     80 C27         3.5370    5.2940    0.1110 c3        1 MOL      0.147676
     81 C28         4.6260    6.4420    0.2610 c3        1 MOL     -0.358467
     82 C29         4.4500    7.6210   -0.6640 c         1 MOL      0.664428
     83 N8          5.3700    7.9640   -1.4800 n         1 MOL     -0.680908
     84 O15         3.4390    8.3090   -0.6140 o         1 MOL     -0.588098
     85 H33         4.6890    2.5830    0.5570 hn        1 MOL      0.070782
     86 H34         3.5380    4.7410    2.2290 h1        1 MOL      0.119251
     87 H35         2.5720    5.8010    0.1240 hc        1 MOL      0.015659
     88 H36         3.6640    4.9110   -0.9000 hc        1 MOL      0.015659
     89 H37         5.5820    5.9590    0.0770 hc        1 MOL      0.104050
     90 H38         4.6730    6.7380    1.3080 hc        1 MOL      0.104050
     91 H39         6.2440    7.4780   -1.3420 hn        1 MOL      0.323980
     92 H40         5.3710    8.8480   -1.9780 hn        1 MOL      0.323980
     93 N9          1.2410    3.7120    1.7170 n         1 MOL     -0.438743
     94 C30        -0.0310    2.9030    1.8640 c3        1 MOL     -0.002725
     95 C31        -1.2060    3.4610    1.0290 c         1 MOL      0.441451
     96 O16        -1.5730    4.6600    1.0540 o         1 MOL     -0.563519
     97 C32        -0.5370    2.7070    3.3000 c3        1 MOL      0.268757
     98 C33        -1.3840    1.4750    3.7040 c3        1 MOL     -0.223298
     99 C34         0.5530    2.6850    4.3330 c3        1 MOL     -0.223298
    100 H41         1.2590    4.6630    2.0470 hn        1 MOL      0.291927
    101 H42         0.2030    1.8930    1.5260 h1        1 MOL      0.146247
    102 H43        -1.2320    3.4690    3.6830 hc        1 MOL     -0.035781
    103 H44        -1.6470    1.5710    4.7570 hc        1 MOL      0.040609
    104 H45        -2.1800    1.3300    2.9630 hc        1 MOL      0.040609
    105 H46        -0.7050    0.6340    3.5840 hc        1 MOL      0.040609
    106 H47         0.1880    2.5230    5.3530 hc        1 MOL      0.040609
    107 H48         1.3130    1.9180    4.1410 hc        1 MOL      0.040609
    108 H49         1.1150    3.6230    4.3790 hc        1 MOL      0.040609
    109 N10        -1.7540    2.5620    0.1640 n         1 MOL     -0.120161
    110 C35        -2.9170    2.8250   -0.6690 c3        1 MOL      0.147552
    111 C36        -4.1770    2.3310    0.0560 c         1 MOL      0.300837
    112 O17        -4.1100    1.6740    1.0700 o         1 MOL     -0.289836
    113 C37        -2.8070    2.3080   -2.1010 c3        1 MOL     -0.545952
    114 C38        -3.3080    0.9280   -2.4050 c         1 MOL      0.716095
    115 N11        -2.5720   -0.1120   -2.0320 n         1 MOL     -0.697581
    116 O18        -4.4420    0.8140   -2.9370 o         1 MOL     -0.592507
    117 H50        -1.5350    1.5760    0.2610 hn        1 MOL     -0.114449
    118 H51        -3.0960    3.8920   -0.7410 h1        1 MOL      0.089704
    119 H52        -1.7900    2.3650   -2.5030 hc        1 MOL      0.179198
    120 H53        -3.3040    3.1090   -2.6570 hc        1 MOL      0.179198
    121 H54        -1.7440    0.0800   -1.4920 hn        1 MOL      0.364914
    122 H55        -2.8150   -1.0280   -2.3860 hn        1 MOL      0.364914
    123 N12        -5.3290    2.6310   -0.5080 n         1 MOL     -0.378784
    124 C39        -6.6410    2.1710   -0.1090 c3        1 MOL      0.011329
    125 C40        -6.7570    0.6740   -0.0210 c         1 MOL      0.703511
    126 O19        -7.2380    0.2520    1.0470 o         1 MOL     -0.558867
    127 C41        -7.6920    2.8360   -0.9740 c3        1 MOL      0.040364
    128 C42        -9.1760    2.5270   -0.7660 ca        1 MOL     -0.151028
    129 C43        -9.7480    2.7070    0.5120 ca        1 MOL     -0.043128
    130 C44        -9.9340    1.8180   -1.7590 ca        1 MOL     -0.043128
    131 C45       -11.0000    2.1790    0.8070 ca        1 MOL     -0.377665
    132 C46       -11.1800    1.2380   -1.5020 ca        1 MOL     -0.377665
    133 C47       -11.7070    1.4460   -0.2030 ca        1 MOL      0.447305
    134 O20       -12.8890    0.9040    0.1320 oh        1 MOL     -0.522759
    135 H56        -5.3180    3.3780   -1.1920 hn        1 MOL      0.258951
    136 H57        -6.7840    2.6070    0.8770 h1        1 MOL      0.060418
    137 H58        -7.3990    2.6960   -2.0200 hc        1 MOL      0.019429
    138 H59        -7.5880    3.9210   -0.9250 hc        1 MOL      0.019429
    139 H60        -9.2090    3.2260    1.2840 ha        1 MOL      0.116220
    140 H61        -9.4860    1.7860   -2.7450 ha        1 MOL      0.116220
    141 H62       -11.3520    2.2230    1.8280 ha        1 MOL      0.182488
    142 H63       -11.6570    0.5690   -2.2160 ha        1 MOL      0.182488
    143 H64       -13.3060    0.6040   -0.6860 ho        1 MOL      0.363209
    144 N13        -6.2790   -0.1670   -0.9510 n         1 MOL     -0.415815
    145 C48        -6.3870   -1.6670   -0.8090 c3        1 MOL     -0.007219
    146 C49        -5.5910   -2.2950    0.2920 c         1 MOL      0.389071
    147 O21        -5.8840   -3.3490    0.7370 o         1 MOL     -0.484868
    148 C50        -6.2370   -2.2930   -2.1700 c3        1 MOL      0.124710
    149 C51        -7.3310   -2.0580   -3.1240 c3        1 MOL     -0.200954
    150 C52        -6.8380   -2.4190   -4.5570 c         1 MOL      0.659131
    151 O22        -6.7240   -1.4590   -5.4110 o         1 MOL     -0.719043
    152 O23        -6.7340   -3.6340   -4.8290 o         1 MOL     -0.719043
    153 H65        -5.8730    0.2050   -1.7930 hn        1 MOL      0.287451
    154 H66        -7.4020   -1.9620   -0.5330 h1        1 MOL      0.079058
    155 H67        -6.0690   -3.3660   -2.0720 hc        1 MOL      0.006290
    156 H68        -5.3330   -1.9570   -2.6600 hc        1 MOL      0.006290
    157 H69        -7.7030   -1.0510   -2.9420 hc        1 MOL      0.004421
    158 H70        -8.1400   -2.6950   -2.7640 hc        1 MOL      0.004421
    159 N14        -4.5350   -1.5120    0.6890 n         1 MOL     -0.182543
    160 C53        -3.6410   -1.8700    1.7540 c3        1 MOL      0.034216
    161 C54        -4.3280   -1.5210    3.0500 c         1 MOL      0.400742
    162 O24        -4.2940   -2.2870    4.0460 o         1 MOL     -0.564398
    163 C55        -2.2180   -1.2700    1.6480 c3        1 MOL      0.100202
    164 C56        -1.2740   -2.1260    0.8310 c3        1 MOL      0.100788
    165 C57        -0.1510   -1.2920    0.0690 c         1 MOL      0.721430
    166 O25         0.9570   -1.7820   -0.0790 o         1 MOL     -0.701043
    167 O26        -0.3670   -0.1440   -0.3280 o         1 MOL     -0.701043
    168 H71        -4.4850   -0.5670    0.3300 hn        1 MOL     -0.039401
    169 H72        -3.5740   -2.9480    1.9610 h1        1 MOL      0.071609
    170 H73        -1.7250   -1.2300    2.6120 hc        1 MOL     -0.000101
    171 H74        -2.3460   -0.2460    1.3020 hc        1 MOL     -0.000101
    172 H75        -1.8720   -2.5910    0.0350 hc        1 MOL     -0.028042
    173 H76        -0.9260   -2.9250    1.4840 hc        1 MOL     -0.028042
    174 N15        -5.0410   -0.3480    3.0520 n         1 MOL     -0.026011
    175 C58        -5.8080    0.1350    4.1690 c3        1 MOL     -0.193683
    176 H77        -5.1810    0.7760    4.7890 h1        1 MOL      0.067183
    177 H78        -6.6610    0.7060    3.8050 h1        1 MOL      0.067183
    178 H79        -6.1600   -0.7100    4.7610 h1        1 MOL      0.067183
    179 H80        -5.0320    0.2070    2.2160 hn        1 MOL      0.054860
    180 Ca1         2.0830    0.3130   -1.1750 Ca        1 MOL      1.751458
    181 O27         2.0280    3.0790   -2.2880 oh        1 MOL     -0.866220
    182 O28         0.4430    0.0270   -3.3590 oh        1 MOL     -0.866220
    183 H81         2.7510    3.2260   -1.6690 ho        1 MOL      0.416485
    184 H82         0.9140   -0.8030   -3.4880 ho        1 MOL      0.416485
    185 H83         2.3850    3.3430   -3.1320 ho        1 MOL      0.416485
    186 H84         0.0770    0.2270   -4.2240 ho        1 MOL      0.416485
@<TRIPOS>BOND
     1    1    2 1   
     2    1    4 1   
     3    1    5 1   
     4    1    6 1   
     5    2    3 2   
     6    2    7 1   
     7    7    8 1   
     8    7   15 1   
     9    8    9 1   
    10    8   11 1   
    11    8   16 1   
    12    9   10 2   
    13    9   19 1   
    14   11   12 1   
    15   11   17 1   
    16   11   18 1   
    17   12   13 1   
    18   12   14 1   
    19   19   20 1   
    20   19   27 1   
    21   20   21 1   
    22   20   23 1   
    23   20   28 1   
    24   21   22 2   
    25   21   38 1   
    26   23   24 1   
    27   23   25 1   
    28   23   29 1   
    29   24   26 1   
    30   24   30 1   
    31   24   31 1   
    32   25   32 1   
    33   25   33 1   
    34   25   34 1   
    35   26   35 1   
    36   26   36 1   
    37   26   37 1   
    38   38   39 1   
    39   38   46 1   
    40   39   40 1   
    41   39   42 1   
    42   39   47 1   
    43   40   41 2   
    44   40   50 1   
    45   42   43 1   
    46   42   48 1   
    47   42   49 1   
    48   43   44 1   
    49   43   45 1   
    50   50   51 1   
    51   50   54 1   
    52   51   52 1   
    53   51   55 1   
    54   51   56 1   
    55   52   53 2   
    56   52   57 1   
    57   57   58 1   
    58   57   65 1   
    59   58   59 1   
    60   58   61 1   
    61   58   66 1   
    62   59   60 2   
    63   59   69 1   
    64   61   62 1   
    65   61   67 1   
    66   61   68 1   
    67   62   63 1   
    68   62   64 1   
    69   69   70 1   
    70   69   73 1   
    71   70   71 1   
    72   70   74 1   
    73   70   75 1   
    74   71   72 2   
    75   71   76 1   
    76   76   77 1   
    77   76   85 1   
    78   77   78 1   
    79   77   80 1   
    80   77   86 1   
    81   78   79 2   
    82   78   93 1   
    83   80   81 1   
    84   80   87 1   
    85   80   88 1   
    86   81   82 1   
    87   81   89 1   
    88   81   90 1   
    89   82   83 1   
    90   82   84 2   
    91   83   91 1   
    92   83   92 1   
    93   93   94 1   
    94   93  100 1   
    95   94   95 1   
    96   94   97 1   
    97   94  101 1   
    98   95   96 2   
    99   95  109 1   
   100   97   98 1   
   101   97   99 1   
   102   97  102 1   
   103   98  103 1   
   104   98  104 1   
   105   98  105 1   
   106   99  106 1   
   107   99  107 1   
   108   99  108 1   
   109  109  110 1   
   110  109  117 1   
   111  110  111 1   
   112  110  113 1   
   113  110  118 1   
   114  111  112 2   
   115  111  123 1   
   116  113  114 1   
   117  113  119 1   
   118  113  120 1   
   119  114  115 1   
   120  114  116 2   
   121  115  121 1   
   122  115  122 1   
   123  123  124 1   
   124  123  135 1   
   125  124  125 1   
   126  124  127 1   
   127  124  136 1   
   128  125  126 2   
   129  125  144 1   
   130  127  128 1   
   131  127  137 1   
   132  127  138 1   
   133  128  129 ar  
   134  128  130 ar  
   135  129  131 ar  
   136  129  139 1   
   137  130  132 ar  
   138  130  140 1   
   139  131  133 ar  
   140  131  141 1   
   141  132  133 ar  
   142  132  142 1   
   143  133  134 1   
   144  134  143 1   
   145  144  145 1   
   146  144  153 1   
   147  145  146 1   
   148  145  148 1   
   149  145  154 1   
   150  146  147 2   
   151  146  159 1   
   152  148  149 1   
   153  148  155 1   
   154  148  156 1   
   155  149  150 1   
   156  149  157 1   
   157  149  158 1   
   158  150  151 1   
   159  150  152 1   
   160  159  160 1   
   161  159  168 1   
   162  160  161 1   
   163  160  163 1   
   164  160  169 1   
   165  161  162 2   
   166  161  174 1   
   167  163  164 1   
   168  163  170 1   
   169  163  171 1   
   170  164  165 1   
   171  164  172 1   
   172  164  173 1   
   173  165  166 1   
   174  165  167 1   
   175  174  175 1   
   176  174  179 1   
   177  175  176 1   
   178  175  177 1   
   179  175  178 1   
   180  181  183 1   
   181  181  185 1   
   182  182  184 1   
   183  182  186 1   
@<TRIPOS>SUBSTRUCTURE
     1 MOL         1 TEMP              0 ****  ****    0 ROOT
