@<TRIPOS>MOLECULE
MOL
  183   181     1     0     0
SMALL
resp


@<TRIPOS>ATOM
      1 C1         -1.4080    1.4220    6.5440 c3        1 MOL     -0.325799
      2 C2         -1.5830    1.7220    5.0500 c         1 MOL      0.741071
      3 O1         -0.6160    2.1770    4.4420 o         1 MOL     -0.592621
      4 H1         -1.2650    0.3500    6.6840 hc        1 MOL      0.072280
      5 H2         -0.5370    1.9570    6.9230 hc        1 MOL      0.072280
      6 H3         -2.2970    1.7430    7.0860 hc        1 MOL      0.072280
      7 N1         -2.7490    1.4360    4.4230 n         1 MOL     -0.590281
      8 C3         -3.0200    1.3180    2.9690 c3        1 MOL      0.097287
      9 C4         -3.3760    2.6500    2.3530 c         1 MOL      0.553454
     10 O2         -4.4180    3.1590    2.6750 o         1 MOL     -0.593544
     11 C5         -4.1430    0.2360    2.8430 c3        1 MOL     -0.143393
     12 C6         -4.6270    0.0400    1.4040 c         1 MOL      0.785888
     13 O3         -5.7060   -0.5150    1.2770 o         1 MOL     -0.735728
     14 O4         -4.0500    0.5610    0.4320 o         1 MOL     -0.735728
     15 H4         -3.5040    1.0640    4.9850 hn        1 MOL      0.287680
     16 H5         -2.0640    1.0370    2.5190 h1        1 MOL      0.057798
     17 H6         -5.0290    0.4870    3.4230 hc        1 MOL      0.035194
     18 H7         -3.7750   -0.7420    3.1770 hc        1 MOL      0.035194
     19 N2         -2.6300    3.2400    1.4470 n         1 MOL     -0.340679
     20 C7         -2.8350    4.6450    0.9330 c3        1 MOL     -0.042531
     21 C8         -4.0020    4.5990   -0.0840 c         1 MOL      0.444423
     22 O5         -4.7750    5.5270   -0.1330 o         1 MOL     -0.550823
     23 C9         -1.5140    5.1090    0.2920 c3        1 MOL      0.074010
     24 C10        -0.4260    5.2920    1.4220 c3        1 MOL      0.039328
     25 C11        -1.6370    6.4160   -0.4780 c3        1 MOL     -0.332892
     26 C12        -0.5840    6.5180    2.3160 c3        1 MOL     -0.078986
     27 H8         -1.8590    2.7090    1.0560 hn        1 MOL      0.213919
     28 H9         -3.0640    5.3190    1.7470 h1        1 MOL      0.109037
     29 H10        -1.1540    4.3050   -0.3600 hc        1 MOL      0.058840
     30 H11         0.5410    5.5270    0.9500 hc        1 MOL      0.020447
     31 H12        -0.3140    4.4090    2.0450 hc        1 MOL      0.020447
     32 H13        -0.6470    6.8750   -0.4840 hc        1 MOL      0.085266
     33 H14        -2.0520    6.3490   -1.4850 hc        1 MOL      0.085266
     34 H15        -2.3270    7.1660   -0.0900 hc        1 MOL      0.085266
     35 H16         0.1780    6.5070    3.1030 hc        1 MOL      0.000952
     36 H17        -0.4170    7.4600    1.7940 hc        1 MOL      0.000952
     37 H18        -1.5940    6.6700    2.7190 hc        1 MOL      0.000952
     38 N3         -4.1900    3.3920   -0.7750 n         1 MOL     -0.021920
     39 C13        -5.1590    3.2120   -1.8920 c3        1 MOL     -0.253030
     40 C14        -6.5010    2.6980   -1.4480 c         1 MOL      0.497846
     41 O6         -7.3980    2.7680   -2.3160 o         1 MOL     -0.532412
     42 C15        -4.6390    2.3390   -3.0470 c3        1 MOL      0.087018
     43 C16        -3.1760    2.5140   -3.2790 c         1 MOL      0.640892
     44 O7         -2.3980    1.7350   -2.6660 o         1 MOL     -0.701218
     45 O8         -2.7470    3.3290   -4.1230 o         1 MOL     -0.701218
     46 H19        -3.6550    2.5890   -0.4630 hn        1 MOL      0.024665
     47 H20        -5.4540    4.2170   -2.2030 h1        1 MOL      0.120778
     48 H21        -5.1940    2.6030   -3.9440 hc        1 MOL     -0.011577
     49 H22        -4.8680    1.3160   -2.7510 hc        1 MOL     -0.011577
     50 N4         -6.7610    2.2650   -0.2430 n         1 MOL     -0.294826
     51 C17        -7.9080    1.6370    0.2530 c3        1 MOL      0.052958
     52 C18        -8.2720    0.4460   -0.6600 c         1 MOL      0.323706
     53 O9         -9.3080    0.3690   -1.2290 o         1 MOL     -0.529201
     54 H23        -5.9400    2.2320    0.3390 hn        1 MOL      0.223207
     55 H24        -8.7270    2.3520    0.2090 h1        1 MOL      0.038104
     56 H25        -7.9940    1.3490    1.2970 h1        1 MOL      0.038104
     57 N5         -7.2930   -0.4540   -0.8420 n         1 MOL     -0.286378
     58 C19        -7.3440   -1.6940   -1.6120 c3        1 MOL      0.221687
     59 C20        -7.0260   -2.9600   -0.7980 c         1 MOL      0.426128
     60 O10        -6.9300   -4.0040   -1.4120 o         1 MOL     -0.538057
     61 C21        -6.6230   -1.5930   -3.0330 c3        1 MOL     -0.276522
     62 C22        -5.1500   -1.2060   -3.0060 c         1 MOL      0.702645
     63 O11        -4.4970   -1.1450   -4.0940 o         1 MOL     -0.696981
     64 O12        -4.5710   -1.1590   -1.8820 o         1 MOL     -0.696981
     65 H26        -6.4430   -0.2470   -0.3360 hn        1 MOL      0.337154
     66 H27        -8.3930   -1.8930   -1.8530 h1        1 MOL      0.005435
     67 H28        -7.2350   -0.8030   -3.4750 hc        1 MOL      0.066287
     68 H29        -6.7500   -2.4970   -3.6250 hc        1 MOL      0.066287
     69 N6         -6.9860   -2.9240    0.5450 n         1 MOL     -0.324982
     70 C23        -6.7860   -4.0480    1.4660 c3        1 MOL     -0.186085
     71 C24        -5.3850   -4.7140    1.4210 c         1 MOL      0.544591
     72 O13        -5.2060   -5.8150    1.8260 o         1 MOL     -0.550079
     73 H30        -6.9570   -2.0150    0.9890 hn        1 MOL      0.225698
     74 H31        -7.4770   -4.8240    1.1180 h1        1 MOL      0.099015
     75 H32        -7.0430   -3.8010    2.4940 h1        1 MOL      0.099015
     76 N7         -4.3970   -3.9120    0.9270 n         1 MOL     -0.136900
     77 C25        -3.0010   -4.3740    0.9450 c3        1 MOL     -0.276654
     78 C26        -1.9710   -3.2150    1.1350 c         1 MOL      0.543669
     79 O14        -2.1500   -2.0230    0.8540 o         1 MOL     -0.614797
     80 C27        -2.6270   -5.2810   -0.2700 c3        1 MOL     -0.052132
     81 C28        -3.1740   -5.0270   -1.6720 c3        1 MOL     -0.192609
     82 C29        -2.6590   -3.8170   -2.4050 c         1 MOL      0.728526
     83 N8         -3.0790   -3.6830   -3.6580 n         1 MOL     -0.893368
     84 O15        -1.9470   -2.9910   -1.8590 o         1 MOL     -0.601904
     85 H33        -4.6300   -3.0060    0.5430 hn        1 MOL      0.212242
     86 H34        -2.9180   -5.0420    1.8030 h1        1 MOL      0.108815
     87 H35        -2.9830   -6.2860   -0.0150 hc        1 MOL      0.059934
     88 H36        -1.5690   -5.4070   -0.4880 hc        1 MOL      0.059934
     89 H37        -4.2280   -4.7870   -1.5020 hc        1 MOL      0.058864
     90 H38        -3.0060   -5.9050   -2.2970 hc        1 MOL      0.058864
     91 H39        -3.8650   -4.2150   -4.0140 hn        1 MOL      0.401713
     92 H40        -2.7400   -2.9450   -4.2440 hn        1 MOL      0.401713
     93 N9         -0.8260   -3.5520    1.7260 n         1 MOL     -0.286639
     94 C30         0.4380   -2.7990    1.9910 c3        1 MOL     -0.035053
     95 C31         1.5690   -3.3100    1.1100 c         1 MOL      0.345817
     96 O16         2.0500   -4.4450    1.1860 o         1 MOL     -0.531766
     97 C32         0.7720   -2.8250    3.4880 c3        1 MOL      0.240403
     98 C33         1.5290   -1.4800    3.8180 c3        1 MOL     -0.400431
     99 C34        -0.5020   -2.8070    4.4320 c3        1 MOL     -0.400431
    100 H41        -0.8950   -4.4840    2.1220 hn        1 MOL      0.230558
    101 H42         0.3210   -1.7330    1.7890 h1        1 MOL      0.129434
    102 H43         1.5090   -3.5790    3.7800 hc        1 MOL     -0.007480
    103 H44         2.3110   -1.1690    3.1190 hc        1 MOL      0.099208
    104 H45         0.7700   -0.7040    3.7660 hc        1 MOL      0.099208
    105 H46         2.0250   -1.5030    4.7840 hc        1 MOL      0.099208
    106 H47        -0.9190   -3.8160    4.4020 hc        1 MOL      0.099208
    107 H48        -0.1610   -2.5710    5.4400 hc        1 MOL      0.099208
    108 H49        -1.2710   -2.0890    4.1650 hc        1 MOL      0.099208
    109 N10         1.8750   -2.4450    0.1160 n         1 MOL     -0.161519
    110 C35         3.0830   -2.6930   -0.6660 c3        1 MOL      0.117141
    111 C36         4.3640   -2.1790   -0.0290 c         1 MOL      0.287866
    112 O17         4.2330   -1.5560    1.0470 o         1 MOL     -0.293016
    113 C37         2.8590   -1.9090   -2.0240 c3        1 MOL     -0.347844
    114 C38         3.5900   -0.6610   -2.2120 c         1 MOL      0.655916
    115 N11         2.9940    0.4320   -1.8450 n         1 MOL     -0.566116
    116 O18         4.7120   -0.6310   -2.6770 o         1 MOL     -0.587570
    117 H50         1.2990   -1.6440   -0.0650 hn        1 MOL      0.154034
    118 H51         3.1990   -3.7520   -0.9000 h1        1 MOL      0.071589
    119 H52         1.7990   -1.6610   -2.1160 hc        1 MOL      0.098014
    120 H53         3.2540   -2.5830   -2.7860 hc        1 MOL      0.098014
    121 H54         2.0360    0.3970   -1.5350 hn        1 MOL      0.302126
    122 H55         3.3750    1.3180   -2.1410 hn        1 MOL      0.302126
    123 N12         5.5500   -2.3980   -0.6540 n         1 MOL     -0.391280
    124 C39         6.9150   -2.0360   -0.0840 c3        1 MOL      0.127493
    125 C40         7.0420   -0.4940    0.1650 c         1 MOL      0.565255
    126 O19         7.4970   -0.0510    1.2500 o         1 MOL     -0.582976
    127 C41         8.0340   -2.3990   -0.9820 c3        1 MOL     -0.371667
    128 C42         9.4260   -1.9210   -0.6140 ca        1 MOL     -0.130875
    129 C43         9.9360   -1.7840    0.6980 ca        1 MOL      0.052706
    130 C44        10.2520   -1.4310   -1.6720 ca        1 MOL      0.052706
    131 C45        11.1790   -1.3330    1.0860 ca        1 MOL     -0.455740
    132 C46        11.5340   -0.8860   -1.2810 ca        1 MOL     -0.455740
    133 C47        12.0020   -0.8570    0.0620 ca        1 MOL      0.529147
    134 O20        13.2430   -0.3870    0.1970 oh        1 MOL     -0.557537
    135 H56         5.4780   -2.9810   -1.4830 hn        1 MOL      0.262510
    136 H57         6.9260   -2.5270    0.8870 h1        1 MOL      0.081868
    137 H58         7.8910   -2.0730   -2.0220 hc        1 MOL      0.145751
    138 H59         8.0050   -3.4780   -0.8460 hc        1 MOL      0.145751
    139 H60         9.2600   -2.0810    1.4890 ha        1 MOL      0.101741
    140 H61        10.0040   -1.4940   -2.7230 ha        1 MOL      0.101741
    141 H62        11.2620   -1.1790    2.1570 ha        1 MOL      0.177141
    142 H63        12.2080   -0.5270   -2.0460 ha        1 MOL      0.177141
    143 H64        13.3590    0.0650    1.0330 ho        1 MOL      0.382323
    144 N13         6.4990    0.3220   -0.7410 n         1 MOL     -0.300783
    145 C48         6.4470    1.7970   -0.8080 c3        1 MOL      0.022190
    146 C49         5.3900    2.4810    0.1640 c         1 MOL      0.301990
    147 O21         5.5240    3.6500    0.5260 o         1 MOL     -0.500280
    148 C50         6.1320    2.2330   -2.2160 c3        1 MOL      0.035817
    149 C51         7.2310    1.9110   -3.2410 c3        1 MOL     -0.326159
    150 C52         6.6650    2.2330   -4.6820 c         1 MOL      0.770121
    151 O22         6.7770    1.3370   -5.5370 o         1 MOL     -0.746517
    152 O23         6.2390    3.3570   -4.9760 o         1 MOL     -0.746517
    153 H65         6.2660   -0.1600   -1.6040 hn        1 MOL      0.279628
    154 H66         7.4130    2.2260   -0.5610 h1        1 MOL      0.085338
    155 H67         5.9700    3.3060   -2.1970 hc        1 MOL      0.034234
    156 H68         5.2260    1.7360   -2.5640 hc        1 MOL      0.034234
    157 H69         7.5440    0.8600   -3.2470 hc        1 MOL      0.050962
    158 H70         8.0860    2.5680   -3.0620 hc        1 MOL      0.050962
    159 N14         4.4140    1.6860    0.6690 n         1 MOL      0.009841
    160 C53         3.5060    1.9460    1.7720 c3        1 MOL     -0.070143
    161 C54         4.1040    1.4500    3.0830 c         1 MOL      0.439813
    162 O24         3.8860    2.0240    4.1610 o         1 MOL     -0.568026
    163 C55         2.2000    1.2820    1.4600 c3        1 MOL      0.110039
    164 C56         1.3540    1.9700    0.3830 c3        1 MOL     -0.029794
    165 C57         0.1690    1.1500   -0.1670 c         1 MOL      0.518969
    166 O25        -0.9700    1.6240   -0.0240 o         1 MOL     -0.625349
    167 O26         0.2220   -0.0240   -0.6820 o         1 MOL     -0.625349
    168 H71         4.2660    0.8120    0.1810 hn        1 MOL     -0.088332
    169 H72         3.3690    3.0260    1.8860 h1        1 MOL      0.079541
    170 H73         1.6090    1.2260    2.3770 hc        1 MOL      0.033493
    171 H74         2.2860    0.2480    1.1110 hc        1 MOL      0.033493
    172 H75         2.0700    2.2050   -0.4090 hc        1 MOL     -0.002393
    173 H76         1.0830    2.9300    0.8310 hc        1 MOL     -0.002393
    174 N15         4.9230    0.3940    2.9820 n         1 MOL      0.001220
    175 C58         5.5670   -0.2330    4.1860 c3        1 MOL     -0.238981
    176 H77         5.6550   -1.3080    4.0320 h1        1 MOL      0.083586
    177 H78         6.5580    0.1950    4.3320 h1        1 MOL      0.083586
    178 H79         4.9550   -0.0420    5.0670 h1        1 MOL      0.083586
    179 H80         5.0290   -0.1200    2.1260 hn        1 MOL     -0.004454
    180 Ca1        -2.2190   -0.3740   -1.2160 Ca        1 MOL      1.722643
    181 O27        -0.9760   -0.5900   -3.4520 oh        1 MOL     -0.885019
    182 H81        -0.0700   -0.3140   -3.6200 ho        1 MOL      0.423363
    183 H82        -1.2980   -0.9040   -4.2940 ho        1 MOL      0.423363
@<TRIPOS>BOND
     1    1    2 1   
     2    1    4 1   
     3    1    5 1   
     4    1    6 1   
     5    2    3 2   
     6    2    7 1   
     7    7    8 1   
     8    7   15 1   
     9    8    9 1   
    10    8   11 1   
    11    8   16 1   
    12    9   10 2   
    13    9   19 1   
    14   11   12 1   
    15   11   17 1   
    16   11   18 1   
    17   12   13 1   
    18   12   14 1   
    19   19   20 1   
    20   19   27 1   
    21   20   21 1   
    22   20   23 1   
    23   20   28 1   
    24   21   22 2   
    25   21   38 1   
    26   23   24 1   
    27   23   25 1   
    28   23   29 1   
    29   24   26 1   
    30   24   30 1   
    31   24   31 1   
    32   25   32 1   
    33   25   33 1   
    34   25   34 1   
    35   26   35 1   
    36   26   36 1   
    37   26   37 1   
    38   38   39 1   
    39   38   46 1   
    40   39   40 1   
    41   39   42 1   
    42   39   47 1   
    43   40   41 2   
    44   40   50 1   
    45   42   43 1   
    46   42   48 1   
    47   42   49 1   
    48   43   44 1   
    49   43   45 1   
    50   50   51 1   
    51   50   54 1   
    52   51   52 1   
    53   51   55 1   
    54   51   56 1   
    55   52   53 2   
    56   52   57 1   
    57   57   58 1   
    58   57   65 1   
    59   58   59 1   
    60   58   61 1   
    61   58   66 1   
    62   59   60 2   
    63   59   69 1   
    64   61   62 1   
    65   61   67 1   
    66   61   68 1   
    67   62   63 1   
    68   62   64 1   
    69   69   70 1   
    70   69   73 1   
    71   70   71 1   
    72   70   74 1   
    73   70   75 1   
    74   71   72 2   
    75   71   76 1   
    76   76   77 1   
    77   76   85 1   
    78   77   78 1   
    79   77   80 1   
    80   77   86 1   
    81   78   79 2   
    82   78   93 1   
    83   80   81 1   
    84   80   87 1   
    85   80   88 1   
    86   81   82 1   
    87   81   89 1   
    88   81   90 1   
    89   82   83 1   
    90   82   84 2   
    91   83   91 1   
    92   83   92 1   
    93   93   94 1   
    94   93  100 1   
    95   94   95 1   
    96   94   97 1   
    97   94  101 1   
    98   95   96 2   
    99   95  109 1   
   100   97   98 1   
   101   97   99 1   
   102   97  102 1   
   103   98  103 1   
   104   98  104 1   
   105   98  105 1   
   106   99  106 1   
   107   99  107 1   
   108   99  108 1   
   109  109  110 1   
   110  109  117 1   
   111  110  111 1   
   112  110  113 1   
   113  110  118 1   
   114  111  112 2   
   115  111  123 1   
   116  113  114 1   
   117  113  119 1   
   118  113  120 1   
   119  114  115 1   
   120  114  116 2   
   121  115  121 1   
   122  115  122 1   
   123  123  124 1   
   124  123  135 1   
   125  124  125 1   
   126  124  127 1   
   127  124  136 1   
   128  125  126 2   
   129  125  144 1   
   130  127  128 1   
   131  127  137 1   
   132  127  138 1   
   133  128  129 ar  
   134  128  130 ar  
   135  129  131 ar  
   136  129  139 1   
   137  130  132 ar  
   138  130  140 1   
   139  131  133 ar  
   140  131  141 1   
   141  132  133 ar  
   142  132  142 1   
   143  133  134 1   
   144  134  143 1   
   145  144  145 1   
   146  144  153 1   
   147  145  146 1   
   148  145  148 1   
   149  145  154 1   
   150  146  147 2   
   151  146  159 1   
   152  148  149 1   
   153  148  155 1   
   154  148  156 1   
   155  149  150 1   
   156  149  157 1   
   157  149  158 1   
   158  150  151 1   
   159  150  152 1   
   160  159  160 1   
   161  159  168 1   
   162  160  161 1   
   163  160  163 1   
   164  160  169 1   
   165  161  162 2   
   166  161  174 1   
   167  163  164 1   
   168  163  170 1   
   169  163  171 1   
   170  164  165 1   
   171  164  172 1   
   172  164  173 1   
   173  165  166 1   
   174  165  167 1   
   175  174  175 1   
   176  174  179 1   
   177  175  176 1   
   178  175  177 1   
   179  175  178 1   
   180  181  182 1   
   181  181  183 1   
@<TRIPOS>SUBSTRUCTURE
     1 MOL         1 TEMP              0 ****  ****    0 ROOT
