@<TRIPOS>MOLECULE
MOL
  186   183     1     0     0
SMALL
resp


@<TRIPOS>ATOM
      1 C1          1.2200   -1.7880    6.4660 c3        1 MOL     -0.333818
      2 C2          1.5330   -1.9380    5.0080 c         1 MOL      0.752058
      3 O1          0.7020   -2.3850    4.2210 o         1 MOL     -0.569266
      4 H1          2.1300   -1.9370    7.0490 hc        1 MOL      0.079356
      5 H2          0.8300   -0.7880    6.6540 hc        1 MOL      0.079356
      6 H3          0.4770   -2.5290    6.7580 hc        1 MOL      0.079356
      7 N1          2.7420   -1.6390    4.5130 n         1 MOL     -0.673444
      8 C3          2.9940   -1.6930    3.0270 c3        1 MOL      0.274575
      9 C4          3.2450   -3.1810    2.6810 c         1 MOL      0.624954
     10 O2          3.9340   -3.8280    3.4780 o         1 MOL     -0.583360
     11 C5          4.1390   -0.7050    2.7660 c3        1 MOL     -0.488309
     12 C6          4.6320   -0.7530    1.3560 c         1 MOL      0.785604
     13 O3          5.7880   -0.2610    1.0550 o         1 MOL     -0.656697
     14 O4          3.9740   -1.2190    0.4070 o         1 MOL     -0.656697
     15 H4          3.3280   -1.0750    5.1100 hn        1 MOL      0.320034
     16 H5          2.0760   -1.4100    2.5040 h1        1 MOL      0.030938
     17 H6          4.8420   -0.9100    3.5790 hc        1 MOL      0.132260
     18 H7          3.7440    0.3050    2.8980 hc        1 MOL      0.132260
     19 N2          2.7250   -3.5930    1.4960 n         1 MOL     -0.375385
     20 C7          2.8100   -4.9670    1.0960 c3        1 MOL      0.009990
     21 C8          3.8370   -5.0490   -0.0410 c         1 MOL      0.456996
     22 O5          4.4430   -6.1110   -0.2570 o         1 MOL     -0.586218
     23 C9          1.3740   -5.4870    0.8360 c3        1 MOL      0.367328
     24 C10         0.6990   -5.8100    2.1750 c3        1 MOL      0.072000
     25 C11         1.2760   -6.6910   -0.0770 c3        1 MOL     -0.252187
     26 C12        -0.8070   -6.0110    2.1080 c3        1 MOL      0.024187
     27 H8          2.1280   -2.9840    0.9750 hn        1 MOL      0.120557
     28 H9          3.1980   -5.5140    1.9550 h1        1 MOL      0.024095
     29 H10         0.7980   -4.8170    0.2060 hc        1 MOL     -0.002011
     30 H11         0.8120   -4.9890    2.8720 hc        1 MOL     -0.054767
     31 H12         1.1820   -6.7200    2.5360 hc        1 MOL     -0.054767
     32 H13         0.2090   -6.8850   -0.1550 hc        1 MOL      0.028987
     33 H14         1.7130   -6.4870   -1.0560 hc        1 MOL      0.028987
     34 H15         1.7870   -7.5630    0.3410 hc        1 MOL      0.028987
     35 H16        -1.2630   -6.0700    3.0930 hc        1 MOL     -0.014784
     36 H17        -1.3170   -5.1700    1.6270 hc        1 MOL     -0.014784
     37 H18        -1.0410   -6.9680    1.6410 hc        1 MOL     -0.014784
     38 N3          3.9610   -3.9980   -0.9090 n         1 MOL     -0.193067
     39 C13         4.7250   -4.1090   -2.1870 c3        1 MOL     -0.048998
     40 C14         6.0110   -3.3180   -2.1910 c         1 MOL      0.398062
     41 O6          6.8010   -3.5530   -3.1530 o         1 MOL     -0.538545
     42 C15         3.8440   -3.7540   -3.3890 c3        1 MOL     -0.148670
     43 C16         3.0100   -2.5000   -3.3580 c         1 MOL      0.743584
     44 O7          1.9060   -2.3400   -3.9650 o         1 MOL     -0.698513
     45 O8          3.5790   -1.5020   -2.7920 o         1 MOL     -0.698513
     46 H19         3.5740   -3.1370   -0.5510 hn        1 MOL      0.104506
     47 H20         4.9190   -5.1760   -2.3240 h1        1 MOL      0.132767
     48 H21         3.2000   -4.5930   -3.6320 hc        1 MOL      0.038799
     49 H22         4.5190   -3.6690   -4.2410 hc        1 MOL      0.038799
     50 N4          6.3700   -2.6720   -1.0690 n         1 MOL     -0.142043
     51 C17         7.7000   -2.2520   -0.7710 c3        1 MOL     -0.238605
     52 C18         7.9920   -0.8740   -1.3790 c         1 MOL      0.671171
     53 O9          9.0910   -0.6900   -1.8280 o         1 MOL     -0.605544
     54 H23         5.6130   -2.4780   -0.4140 hn        1 MOL      0.212114
     55 H24         8.3950   -3.0220   -1.1270 h1        1 MOL      0.090591
     56 H25         7.6900   -2.0260    0.2940 h1        1 MOL      0.090591
     57 N5          6.9560    0.0570   -1.3770 n         1 MOL     -0.239209
     58 C19         7.2100    1.3670   -1.8620 c3        1 MOL      0.026848
     59 C20         7.3290    2.4830   -0.7420 c         1 MOL      0.332090
     60 O10         7.5320    3.6490   -1.0990 o         1 MOL     -0.543967
     61 C21         6.1270    1.7810   -2.9030 c3        1 MOL     -0.300269
     62 C22         4.6580    1.6960   -2.4130 c         1 MOL      0.816970
     63 O11         4.4150    1.6790   -1.1910 o         1 MOL     -0.753099
     64 O12         3.7650    1.6120   -3.2600 o         1 MOL     -0.753099
     65 H26         6.1020   -0.1920   -0.8960 hn        1 MOL      0.062326
     66 H27         8.1590    1.3070   -2.3990 h1        1 MOL      0.083342
     67 H28         6.2190    1.0530   -3.7050 hc        1 MOL      0.088601
     68 H29         6.3570    2.7730   -3.2990 hc        1 MOL      0.088601
     69 N6          7.0410    2.1910    0.5240 n         1 MOL     -0.197313
     70 C23         6.9200    3.1860    1.5990 c3        1 MOL     -0.115215
     71 C24         5.6100    4.0150    1.6390 c         1 MOL      0.543966
     72 O13         5.5020    4.9110    2.4410 o         1 MOL     -0.616162
     73 H30         6.8960    1.2270    0.7470 hn        1 MOL      0.193146
     74 H31         7.7170    3.9260    1.5000 h1        1 MOL      0.076603
     75 H32         7.1290    2.6930    2.5440 h1        1 MOL      0.076603
     76 N7          4.6160    3.6950    0.8550 n         1 MOL     -0.324564
     77 C25         3.2610    4.2550    0.9840 c3        1 MOL      0.049154
     78 C26         2.1750    3.2080    1.0980 c         1 MOL      0.635861
     79 O14         2.4420    1.9960    0.9160 o         1 MOL     -0.709409
     80 C27         2.9470    5.2350   -0.1220 c3        1 MOL      0.000019
     81 C28         3.5200    6.6590    0.2510 c3        1 MOL     -0.303992
     82 C29         3.0540    7.5960   -0.7840 c         1 MOL      0.629753
     83 N8          3.7130    7.5880   -1.9330 n         1 MOL     -0.774855
     84 O15         2.1150    8.3610   -0.6340 o         1 MOL     -0.570139
     85 H33         4.8310    3.0050    0.1450 hn        1 MOL      0.319759
     86 H34         3.2520    4.8640    1.8870 h1        1 MOL      0.070928
     87 H35         1.8780    5.4450   -0.2340 hc        1 MOL      0.060387
     88 H36         3.3580    4.8970   -1.0780 hc        1 MOL      0.060387
     89 H37         4.6100    6.6330    0.2350 hc        1 MOL      0.093929
     90 H38         3.1100    7.0150    1.1900 hc        1 MOL      0.093929
     91 H39         4.6410    7.1870   -1.9070 hn        1 MOL      0.350804
     92 H40         3.5050    8.3170   -2.6010 hn        1 MOL      0.350804
     93 N9          0.9570    3.5920    1.3600 n         1 MOL     -0.540494
     94 C30        -0.1680    2.6600    1.6190 c3        1 MOL      0.218762
     95 C31        -1.3460    3.1540    0.6860 c         1 MOL      0.388609
     96 O16        -1.7810    4.3040    0.8620 o         1 MOL     -0.573459
     97 C32        -0.6440    2.6960    3.0430 c3        1 MOL      0.328076
     98 C33        -1.5640    1.5540    3.4680 c3        1 MOL     -0.367260
     99 C34         0.5160    2.5500    4.0720 c3        1 MOL     -0.367260
    100 H41         0.8750    4.5710    1.6090 hn        1 MOL      0.272028
    101 H42         0.0700    1.6310    1.3580 h1        1 MOL      0.035764
    102 H43        -1.2120    3.6010    3.2330 hc        1 MOL     -0.048074
    103 H44        -2.0670    1.8020    4.4050 hc        1 MOL      0.075965
    104 H45        -2.3110    1.5620    2.6880 hc        1 MOL      0.075965
    105 H46        -1.1040    0.5690    3.4420 hc        1 MOL      0.075965
    106 H47         1.0450    1.6110    3.9060 hc        1 MOL      0.075965
    107 H48         1.1690    3.4120    3.9690 hc        1 MOL      0.075965
    108 H49         0.1320    2.4380    5.0840 hc        1 MOL      0.075965
    109 N10        -1.8500    2.3120   -0.2260 n         1 MOL     -0.105329
    110 C35        -3.0280    2.5710   -1.0310 c3        1 MOL      0.051732
    111 C36        -4.2930    1.9870   -0.3390 c         1 MOL      0.474299
    112 O17        -4.2500    1.2610    0.6680 o         1 MOL     -0.375720
    113 C37        -2.6270    2.0060   -2.4550 c3        1 MOL     -0.394769
    114 C38        -3.0210    0.5820   -2.6680 c         1 MOL      0.606176
    115 N11        -2.1230   -0.3470   -2.7880 n         1 MOL     -0.787338
    116 O18        -4.1730    0.2450   -2.8260 o         1 MOL     -0.554048
    117 H50        -1.4420    1.3950   -0.3130 hn        1 MOL      0.051626
    118 H51        -3.2260    3.6400   -1.1870 h1        1 MOL      0.065256
    119 H52        -1.5500    2.0910   -2.5860 hc        1 MOL      0.134006
    120 H53        -3.1390    2.5940   -3.2280 hc        1 MOL      0.134006
    121 H54        -1.2010   -0.0240   -2.5150 hn        1 MOL      0.426331
    122 H55        -2.5050   -1.2760   -2.7930 hn        1 MOL      0.426331
    123 N12        -5.4330    2.3030   -0.9540 n         1 MOL     -0.562295
    124 C39        -6.7200    1.9930   -0.3600 c3        1 MOL      0.083160
    125 C40        -6.9320    0.5140    0.1050 c         1 MOL      0.587001
    126 O19        -7.3330    0.2320    1.2350 o         1 MOL     -0.535101
    127 C41        -7.7900    2.5880   -1.3640 c3        1 MOL     -0.084583
    128 C42        -9.1890    2.3290   -0.8710 ca        1 MOL      0.008631
    129 C43        -9.6710    3.0680    0.2260 ca        1 MOL     -0.222880
    130 C44       -10.0490    1.3050   -1.4040 ca        1 MOL     -0.222880
    131 C45       -10.9910    2.7980    0.6890 ca        1 MOL     -0.155464
    132 C46       -11.2990    1.0030   -0.8200 ca        1 MOL     -0.155464
    133 C47       -11.7960    1.7490    0.1860 ca        1 MOL      0.282650
    134 O20       -13.0560    1.5620    0.7410 oh        1 MOL     -0.528200
    135 H56        -5.4600    2.8850   -1.7790 hn        1 MOL      0.317167
    136 H57        -6.8020    2.6030    0.5460 h1        1 MOL      0.054869
    137 H58        -7.5340    2.3040   -2.3840 hc        1 MOL      0.065993
    138 H59        -7.6090    3.6530   -1.5250 hc        1 MOL      0.065993
    139 H60        -9.1170    3.8340    0.7500 ha        1 MOL      0.148858
    140 H61        -9.7430    0.6120   -2.1670 ha        1 MOL      0.148858
    141 H62       -11.4530    3.3120    1.5160 ha        1 MOL      0.115149
    142 H63       -11.8860    0.2890   -1.3840 ha        1 MOL      0.115149
    143 H64       -13.5880    1.0840    0.0980 ho        1 MOL      0.371520
    144 N13        -6.5560   -0.3950   -0.8110 n         1 MOL     -0.233597
    145 C48        -6.5750   -1.8700   -0.5720 c3        1 MOL     -0.137459
    146 C49        -5.5840   -2.3330    0.5190 c         1 MOL      0.223914
    147 O21        -5.8820   -3.3510    1.1580 o         1 MOL     -0.488772
    148 C50        -6.3670   -2.6560   -1.8220 c3        1 MOL      0.500727
    149 C51        -7.4330   -2.3470   -2.9220 c3        1 MOL     -0.309818
    150 C52        -7.5010   -3.2870   -4.1050 c         1 MOL      0.758920
    151 O22        -6.4950   -3.8760   -4.5000 o         1 MOL     -0.756826
    152 O23        -8.6790   -3.4550   -4.6200 o         1 MOL     -0.756826
    153 H65        -6.5350   -0.0250   -1.7470 hn        1 MOL      0.187786
    154 H66        -7.6210   -1.9860   -0.3060 h1        1 MOL      0.089697
    155 H67        -6.4510   -3.7180   -1.5710 hc        1 MOL     -0.096446
    156 H68        -5.3580   -2.4050   -2.1560 hc        1 MOL     -0.096446
    157 H69        -7.2920   -1.2990   -3.1740 hc        1 MOL      0.006336
    158 H70        -8.3350   -2.4200   -2.3190 hc        1 MOL      0.006336
    159 N14        -4.4700   -1.6290    0.7100 n         1 MOL     -0.037414
    160 C53        -3.5310   -1.9320    1.7770 c3        1 MOL     -0.043881
    161 C54        -3.9880   -1.4260    3.1350 c         1 MOL      0.430182
    162 O24        -3.5960   -1.9880    4.1970 o         1 MOL     -0.569918
    163 C55        -2.0990   -1.3840    1.4460 c3        1 MOL      0.163120
    164 C56        -1.4840   -2.0900    0.2380 c3        1 MOL      0.112243
    165 C57        -0.1290   -1.4910   -0.3040 c         1 MOL      0.676322
    166 O25         0.9390   -2.1930   -0.4350 o         1 MOL     -0.736403
    167 O26        -0.0620   -0.2410   -0.4280 o         1 MOL     -0.736403
    168 H71        -4.2560   -0.8170    0.1460 hn        1 MOL      0.177914
    169 H72        -3.5140   -3.0160    1.9110 h1        1 MOL      0.069994
    170 H73        -1.4450   -1.6160    2.2880 hc        1 MOL      0.004435
    171 H74        -2.2450   -0.3170    1.2830 hc        1 MOL      0.004435
    172 H75        -2.2350   -2.1580   -0.5400 hc        1 MOL     -0.094872
    173 H76        -1.2580   -3.1250    0.5260 hc        1 MOL     -0.094872
    174 N15        -4.7500   -0.3140    3.0790 n         1 MOL      0.008009
    175 C58        -5.5280    0.2260    4.2150 c3        1 MOL     -0.418415
    176 H77        -4.9010    0.2470    5.1060 h1        1 MOL      0.132711
    177 H78        -5.8590    1.2370    3.9810 h1        1 MOL      0.132711
    178 H79        -6.3960   -0.4090    4.3960 h1        1 MOL      0.132711
    179 H80        -5.0170    0.0690    2.1860 hn        1 MOL      0.035621
    180 Ca1         2.3940    0.1170   -1.1950 Ca        1 MOL      1.795509
    181 O27         1.6980    2.9800   -2.1680 oh        1 MOL     -0.848203
    182 H81         1.4740    3.8190   -2.5680 ho        1 MOL      0.392094
    183 H82         2.4120    2.6430   -2.6980 ho        1 MOL      0.392094
    184 O28         0.8380    0.0380   -3.3840 oh        1 MOL     -0.848203
    185 H83         0.3810    0.5460   -4.0570 ho        1 MOL      0.392094
    186 H84         1.0990   -0.7710   -3.8180 ho        1 MOL      0.392094
@<TRIPOS>BOND
     1    1    2 1   
     2    1    4 1   
     3    1    5 1   
     4    1    6 1   
     5    2    3 2   
     6    2    7 1   
     7    7    8 1   
     8    7   15 1   
     9    8    9 1   
    10    8   11 1   
    11    8   16 1   
    12    9   10 2   
    13    9   19 1   
    14   11   12 1   
    15   11   17 1   
    16   11   18 1   
    17   12   13 1   
    18   12   14 1   
    19   19   20 1   
    20   19   27 1   
    21   20   21 1   
    22   20   23 1   
    23   20   28 1   
    24   21   22 2   
    25   21   38 1   
    26   23   24 1   
    27   23   25 1   
    28   23   29 1   
    29   24   26 1   
    30   24   30 1   
    31   24   31 1   
    32   25   32 1   
    33   25   33 1   
    34   25   34 1   
    35   26   35 1   
    36   26   36 1   
    37   26   37 1   
    38   38   39 1   
    39   38   46 1   
    40   39   40 1   
    41   39   42 1   
    42   39   47 1   
    43   40   41 2   
    44   40   50 1   
    45   42   43 1   
    46   42   48 1   
    47   42   49 1   
    48   43   44 1   
    49   43   45 1   
    50   50   51 1   
    51   50   54 1   
    52   51   52 1   
    53   51   55 1   
    54   51   56 1   
    55   52   53 2   
    56   52   57 1   
    57   57   58 1   
    58   57   65 1   
    59   58   59 1   
    60   58   61 1   
    61   58   66 1   
    62   59   60 2   
    63   59   69 1   
    64   61   62 1   
    65   61   67 1   
    66   61   68 1   
    67   62   63 1   
    68   62   64 1   
    69   69   70 1   
    70   69   73 1   
    71   70   71 1   
    72   70   74 1   
    73   70   75 1   
    74   71   72 2   
    75   71   76 1   
    76   76   77 1   
    77   76   85 1   
    78   77   78 1   
    79   77   80 1   
    80   77   86 1   
    81   78   79 2   
    82   78   93 1   
    83   80   81 1   
    84   80   87 1   
    85   80   88 1   
    86   81   82 1   
    87   81   89 1   
    88   81   90 1   
    89   82   83 1   
    90   82   84 2   
    91   83   91 1   
    92   83   92 1   
    93   93   94 1   
    94   93  100 1   
    95   94   95 1   
    96   94   97 1   
    97   94  101 1   
    98   95   96 2   
    99   95  109 1   
   100   97   98 1   
   101   97   99 1   
   102   97  102 1   
   103   98  103 1   
   104   98  104 1   
   105   98  105 1   
   106   99  106 1   
   107   99  107 1   
   108   99  108 1   
   109  109  110 1   
   110  109  117 1   
   111  110  111 1   
   112  110  113 1   
   113  110  118 1   
   114  111  112 2   
   115  111  123 1   
   116  113  114 1   
   117  113  119 1   
   118  113  120 1   
   119  114  115 1   
   120  114  116 2   
   121  115  121 1   
   122  115  122 1   
   123  123  124 1   
   124  123  135 1   
   125  124  125 1   
   126  124  127 1   
   127  124  136 1   
   128  125  126 2   
   129  125  144 1   
   130  127  128 1   
   131  127  137 1   
   132  127  138 1   
   133  128  129 ar  
   134  128  130 ar  
   135  129  131 ar  
   136  129  139 1   
   137  130  132 ar  
   138  130  140 1   
   139  131  133 ar  
   140  131  141 1   
   141  132  133 ar  
   142  132  142 1   
   143  133  134 1   
   144  134  143 1   
   145  144  145 1   
   146  144  153 1   
   147  145  146 1   
   148  145  148 1   
   149  145  154 1   
   150  146  147 2   
   151  146  159 1   
   152  148  149 1   
   153  148  155 1   
   154  148  156 1   
   155  149  150 1   
   156  149  157 1   
   157  149  158 1   
   158  150  151 1   
   159  150  152 1   
   160  159  160 1   
   161  159  168 1   
   162  160  161 1   
   163  160  163 1   
   164  160  169 1   
   165  161  162 2   
   166  161  174 1   
   167  163  164 1   
   168  163  170 1   
   169  163  171 1   
   170  164  165 1   
   171  164  172 1   
   172  164  173 1   
   173  165  166 1   
   174  165  167 1   
   175  174  175 1   
   176  174  179 1   
   177  175  176 1   
   178  175  177 1   
   179  175  178 1   
   180  181  182 1   
   181  181  183 1   
   182  184  185 1   
   183  184  186 1   
@<TRIPOS>SUBSTRUCTURE
     1 MOL         1 TEMP              0 ****  ****    0 ROOT
