@<TRIPOS>MOLECULE
MOL
  179   176     1     0     0
SMALL
resp


@<TRIPOS>ATOM
      1 C1          1.8350    4.0100    6.5650 c3        1 MOL     -0.351617
      2 C2          1.9720    3.3550    5.1810 c         1 MOL      0.733403
      3 O1          3.0700    2.9490    4.7780 o         1 MOL     -0.581148
      4 H1          2.5360    4.8420    6.6430 hc        1 MOL      0.091071
      5 H2          0.8180    4.3790    6.6950 hc        1 MOL      0.091071
      6 H3          2.0580    3.2760    7.3400 hc        1 MOL      0.091071
      7 N1          0.8830    3.2020    4.4060 n         1 MOL     -0.660011
      8 C3          0.8530    2.7490    2.9800 c3        1 MOL      0.247270
      9 C4          1.0970    3.8810    2.0010 c         1 MOL      0.481300
     10 O2          0.6710    5.0180    2.1370 o         1 MOL     -0.538863
     11 C5         -0.4840    2.0650    2.7450 c3        1 MOL     -0.042670
     12 C6         -0.6020    1.4560    1.3650 c         1 MOL      0.694864
     13 O3          0.3080    0.7250    0.9190 o         1 MOL     -0.723182
     14 O4         -1.6680    1.6510    0.7070 o         1 MOL     -0.723182
     15 H4         -0.0020    3.4060    4.8360 hn        1 MOL      0.316298
     16 H5          1.6180    1.9990    2.8380 h1        1 MOL      0.066078
     17 H6         -1.2710    2.8200    2.8110 hc        1 MOL     -0.001418
     18 H7         -0.5730    1.3240    3.5420 hc        1 MOL     -0.001418
     19 N2          1.7750    3.6590    0.8960 n         1 MOL     -0.068816
     20 C7          2.1990    4.5530   -0.0750 c3        1 MOL     -0.169373
     21 C8          1.0050    5.3390   -0.7750 c         1 MOL      0.562043
     22 O5          1.1320    6.5480   -0.9940 o         1 MOL     -0.577831
     23 C9          3.0910    3.8230   -1.0970 c3        1 MOL     -0.077038
     24 C10         4.0620    4.7670   -1.9050 c3        1 MOL     -0.163297
     25 C11         4.7720    3.8500   -2.7980 c3        1 MOL     -0.127436
     26 C12         5.4710    4.5420   -3.9800 c3        1 MOL      0.083216
     27 N3          6.2330    3.6290   -4.9100 n4        1 MOL     -0.422955
     28 H8          1.9920    2.6800    0.7650 hn        1 MOL     -0.088405
     29 H9          2.7940    5.3420    0.3810 h1        1 MOL      0.105651
     30 H10         2.4470    3.1850   -1.6940 hc        1 MOL      0.123799
     31 H11         3.7690    3.1640   -0.5550 hc        1 MOL      0.123799
     32 H12         4.7680    5.3200   -1.2820 hc        1 MOL      0.087867
     33 H13         3.4810    5.4790   -2.4950 hc        1 MOL      0.087867
     34 H14         4.1400    3.1230   -3.2850 hc        1 MOL      0.083114
     35 H15         5.4630    3.3210   -2.1470 hc        1 MOL      0.083114
     36 H16         6.0210    5.4010   -3.5940 hx        1 MOL      0.076741
     37 H17         4.7170    5.0560   -4.5640 hx        1 MOL      0.076741
     38 H18         7.0480    3.3180   -4.4120 hn        1 MOL      0.344607
     39 H19         5.7170    2.7860   -5.1150 hn        1 MOL      0.344607
     40 H20         6.5870    4.1300   -5.7190 hn        1 MOL      0.344607
     41 N4         -0.1670    4.7340   -0.9000 n         1 MOL     -0.362944
     42 C13        -1.3680    5.3780   -1.4260 c3        1 MOL     -0.050611
     43 C14        -2.5950    5.1810   -0.5470 c         1 MOL      0.492413
     44 O6         -3.6590    5.6260   -0.9570 o         1 MOL     -0.558958
     45 C15        -1.5180    4.8780   -2.9250 c3        1 MOL     -0.197261
     46 C16        -1.4750    3.3150   -3.0180 c         1 MOL      0.766421
     47 O7         -1.5100    2.8420   -4.1420 o         1 MOL     -0.717071
     48 O8         -1.4940    2.6280   -1.9760 o         1 MOL     -0.717071
     49 H21        -0.0950    3.7370   -0.7270 hn        1 MOL      0.316368
     50 H22        -1.3950    6.4730   -1.4530 h1        1 MOL      0.131918
     51 H23        -0.6930    5.2120   -3.5380 hc        1 MOL      0.060871
     52 H24        -2.4270    5.2500   -3.4030 hc        1 MOL      0.060871
     53 N5         -2.4760    4.5780    0.6120 n         1 MOL     -0.079535
     54 C17        -3.5200    4.5440    1.6370 c3        1 MOL     -0.318186
     55 C18        -4.6720    3.5850    1.3650 c         1 MOL      0.699524
     56 O9         -5.6840    3.5140    2.0530 o         1 MOL     -0.631081
     57 H25        -1.5600    4.2040    0.8450 hn        1 MOL      0.121538
     58 H26        -3.9610    5.5390    1.7050 h1        1 MOL      0.132288
     59 H27        -3.1110    4.1940    2.5890 h1        1 MOL      0.132288
     60 N6         -4.6610    2.7580    0.3560 n         1 MOL     -0.348133
     61 C19        -5.8350    2.1680   -0.3490 c3        1 MOL     -0.064614
     62 C20        -6.5340    0.9550    0.3720 c         1 MOL      0.374868
     63 O10        -7.2120    0.1630   -0.2290 o         1 MOL     -0.468563
     64 C21        -5.4240    1.9700   -1.8310 c3        1 MOL     -0.087128
     65 C22        -4.8100    0.6480   -2.1850 c         1 MOL      0.526653
     66 N7         -5.3340    0.0220   -3.1670 n         1 MOL     -0.794414
     67 O11        -3.8480    0.2240   -1.6140 o         1 MOL     -0.465649
     68 H28        -3.7670    2.7010   -0.1050 hn        1 MOL      0.123750
     69 H29        -6.5750    2.9710   -0.3520 h1        1 MOL      0.141877
     70 H30        -4.7640    2.7810   -2.1320 hc        1 MOL      0.083648
     71 H31        -6.2620    2.1880   -2.4850 hc        1 MOL      0.083648
     72 H32        -6.1870    0.4110   -3.5710 hn        1 MOL      0.375341
     73 H33        -4.9730   -0.8030   -3.6050 hn        1 MOL      0.375341
     74 N8         -6.2720    0.7470    1.6740 n         1 MOL     -0.112551
     75 C23        -6.7740   -0.3580    2.4500 c3        1 MOL     -0.334491
     76 C24        -5.9850   -1.7430    2.1840 c         1 MOL      0.501895
     77 O12        -6.3790   -2.7810    2.7110 o         1 MOL     -0.544726
     78 H34        -5.8280    1.5530    2.0970 hn        1 MOL      0.232936
     79 H35        -7.8110   -0.4910    2.1460 h1        1 MOL      0.151598
     80 H36        -6.6690   -0.0790    3.5040 h1        1 MOL      0.151598
     81 N9         -4.9500   -1.6630    1.4180 n         1 MOL     -0.234032
     82 C25        -4.0750   -2.7480    0.9800 c3        1 MOL      0.533076
     83 C26        -2.5940   -2.3120    1.0950 c         1 MOL      0.001188
     84 O13        -2.2450   -1.1290    0.8050 o         1 MOL     -0.455055
     85 C27        -4.3620   -3.1700   -0.4400 c3        1 MOL     -0.012882
     86 C28        -5.7580   -3.7580   -0.6950 ca        1 MOL     -0.227875
     87 C29        -5.8080   -5.1500   -0.6000 ca        1 MOL      0.031743
     88 C30        -6.8500   -3.0070   -1.0200 ca        1 MOL      0.031743
     89 C31        -6.9140   -5.8270   -1.1410 ca        1 MOL     -0.323015
     90 C32        -8.0970   -3.6590   -1.3840 ca        1 MOL     -0.323015
     91 C33        -8.0360   -5.0650   -1.5150 ca        1 MOL      0.373524
     92 O14        -9.0780   -5.7530   -2.0580 oh        1 MOL     -0.520952
     93 H37        -4.7450   -0.7220    1.1060 hn        1 MOL      0.102002
     94 H38        -4.3030   -3.5580    1.6810 h1        1 MOL     -0.055895
     95 H39        -3.6300   -3.9140   -0.7720 hc        1 MOL      0.017465
     96 H40        -4.2980   -2.2780   -1.0550 hc        1 MOL      0.017465
     97 H41        -4.9130   -5.7140   -0.3460 ha        1 MOL      0.082851
     98 H42        -6.8200   -1.9300   -1.1090 ha        1 MOL      0.082851
     99 H43        -6.8860   -6.8970   -1.2380 ha        1 MOL      0.157245
    100 H44        -9.0140   -3.2010   -1.7080 ha        1 MOL      0.157245
    101 H45        -9.7870   -5.2050   -2.3950 ho        1 MOL      0.376640
    102 N10        -1.6900   -3.2460    1.2380 n         1 MOL     -0.267774
    103 C34        -0.1830   -2.9690    1.3520 c3        1 MOL     -0.046658
    104 C35         0.5780   -4.1070    0.7090 c         1 MOL      0.423815
    105 O15         0.2970   -5.2660    1.0530 o         1 MOL     -0.567585
    106 C36         0.3550   -2.8200    2.8000 c3        1 MOL      0.099532
    107 C37        -0.6340   -2.2240    3.7420 c3        1 MOL      0.186190
    108 C38         1.7720   -2.1500    2.8000 c3        1 MOL     -0.252080
    109 C39        -0.1520   -2.0480    5.1760 c3        1 MOL     -0.157281
    110 H46        -1.9340   -4.2040    1.4510 hn        1 MOL      0.277418
    111 H47         0.0990   -2.0130    0.9030 h1        1 MOL      0.155154
    112 H48         0.5950   -3.7500    3.3190 hc        1 MOL     -0.009317
    113 H49        -1.5420   -2.8280    3.7790 hc        1 MOL     -0.025267
    114 H50        -0.9000   -1.2780    3.2570 hc        1 MOL     -0.025267
    115 H51         2.4640   -2.5980    2.0860 hc        1 MOL      0.040233
    116 H52         1.6980   -1.0730    2.6040 hc        1 MOL      0.040233
    117 H53         2.1970   -2.2010    3.8080 hc        1 MOL      0.040233
    118 H54        -0.8800   -1.5350    5.7920 hc        1 MOL      0.036060
    119 H55        -0.0510   -3.0570    5.5700 hc        1 MOL      0.036060
    120 H56         0.7400   -1.4420    5.2680 hc        1 MOL      0.036060
    121 N11         1.3860   -3.7310   -0.2020 n         1 MOL     -0.204430
    122 C40         2.4330   -4.5460   -0.8240 c3        1 MOL      0.067064
    123 C41         3.8850   -4.2130   -0.2570 c         1 MOL      0.361166
    124 O16         4.0710   -3.0930    0.1730 o         1 MOL     -0.240006
    125 C42         2.5730   -4.4360   -2.3240 c3        1 MOL      0.192748
    126 O17         1.2540   -4.6550   -2.9310 oh        1 MOL     -0.566607
    127 H57         1.4010   -2.7350   -0.3480 hn        1 MOL      0.185485
    128 H58         2.2830   -5.6220   -0.7110 h1        1 MOL      0.068485
    129 H59         3.2920   -5.1770   -2.6540 h1        1 MOL      0.012181
    130 H60         2.9220   -3.4440   -2.6310 h1        1 MOL      0.012181
    131 H61         0.9020   -3.7740   -2.7850 ho        1 MOL      0.362218
    132 N12         4.8400   -5.1030   -0.3010 n         1 MOL     -0.529762
    133 C43         6.0500   -5.0110    0.5440 c3        1 MOL      0.192717
    134 C44         7.0950   -3.8240    0.2620 c         1 MOL      0.389356
    135 O18         7.7430   -3.3010    1.1280 o         1 MOL     -0.472637
    136 C45         6.7770   -6.3640    0.4400 c3        1 MOL     -0.511392
    137 H62         4.6510   -6.0480   -0.6060 hn        1 MOL      0.323935
    138 H63         5.6850   -4.8930    1.5590 h1        1 MOL      0.085711
    139 H64         7.7880   -6.1920    0.8280 hc        1 MOL      0.153896
    140 H65         6.3590   -7.1070    1.1160 hc        1 MOL      0.153896
    141 H66         6.8510   -6.6860   -0.5960 hc        1 MOL      0.153896
    142 N13         7.0260   -3.3990   -0.9690 n         1 MOL     -0.302036
    143 C46         7.6730   -2.1780   -1.4600 c3        1 MOL      0.103932
    144 C47         7.0850   -0.8620   -0.8350 c         1 MOL      0.302104
    145 O19         7.8220    0.1620   -0.6030 o         1 MOL     -0.503389
    146 C48         7.4550   -2.0620   -2.9120 c3        1 MOL     -0.300351
    147 H67         6.3920   -3.8890   -1.5970 hn        1 MOL      0.217011
    148 H68         8.7480   -2.1520   -1.2890 h1        1 MOL      0.103392
    149 H69         7.8260   -1.0920   -3.2680 hc        1 MOL      0.081007
    150 H70         7.9830   -2.8180   -3.4990 hc        1 MOL      0.081007
    151 H71         6.4030   -2.2410   -3.1380 hc        1 MOL      0.081007
    152 N14         5.7900   -0.9040   -0.5670 n         1 MOL     -0.020300
    153 C49         5.0620    0.2010    0.0540 c3        1 MOL     -0.255446
    154 C50         5.2950    0.2340    1.4980 c         1 MOL      0.550568
    155 O20         5.5460    1.3170    2.0970 o         1 MOL     -0.537259
    156 C51         3.5590    0.1580   -0.1680 c3        1 MOL     -0.486242
    157 C52         3.2740    0.0580   -1.6920 c3        1 MOL     -0.065019
    158 C53         1.7450    0.0020   -1.9190 c         1 MOL      0.580110
    159 O21         1.0800   -1.0780   -1.6920 o         1 MOL     -0.662430
    160 O22         1.1000    1.0570   -2.1790 o         1 MOL     -0.662430
    161 H72         5.2300   -1.7140   -0.8070 hn        1 MOL      0.160647
    162 H73         5.5060    1.0530   -0.4690 h1        1 MOL      0.138876
    163 H74         3.0610    1.0490    0.2160 hc        1 MOL      0.246155
    164 H75         3.0810   -0.6430    0.3870 hc        1 MOL      0.246155
    165 H76         3.7070   -0.8350   -2.1410 hc        1 MOL     -0.002237
    166 H77         3.6860    0.9000   -2.2530 hc        1 MOL     -0.002237
    167 N15         5.3490   -0.9320    2.1770 n         1 MOL     -0.120866
    168 C54         5.8610   -1.1080    3.5790 c3        1 MOL     -0.253238
    169 H78         6.5520   -0.3000    3.8160 h1        1 MOL      0.115315
    170 H79         5.0240   -1.0860    4.2770 h1        1 MOL      0.115315
    171 H80         6.3780   -2.0650    3.6600 h1        1 MOL      0.115315
    172 H81         5.2030   -1.7370    1.5890 hn        1 MOL      0.082874
    173 Ca1        -1.1730    0.1040   -1.2690 Ca        1 MOL      1.737476
    174 O23        -1.6830   -2.5250   -2.2580 oh        1 MOL     -0.921732
    175 H82        -1.5310   -3.4580   -2.0800 ho        1 MOL      0.432574
    176 H83        -2.3320   -2.5230   -2.9500 ho        1 MOL      0.432574
    177 O24        -1.5420    0.2700   -4.0440 oh        1 MOL     -0.921732
    178 H84        -1.4600    1.2180   -4.0040 ho        1 MOL      0.432574
    179 H85        -2.0930    0.1140   -4.8120 ho        1 MOL      0.432574
@<TRIPOS>BOND
     1    1    2 1   
     2    1    4 1   
     3    1    5 1   
     4    1    6 1   
     5    2    3 2   
     6    2    7 1   
     7    7    8 1   
     8    7   15 1   
     9    8    9 1   
    10    8   11 1   
    11    8   16 1   
    12    9   10 2   
    13    9   19 1   
    14   11   12 1   
    15   11   17 1   
    16   11   18 1   
    17   12   13 1   
    18   12   14 1   
    19   19   20 1   
    20   19   28 1   
    21   20   21 1   
    22   20   23 1   
    23   20   29 1   
    24   21   22 2   
    25   21   41 1   
    26   23   24 1   
    27   23   30 1   
    28   23   31 1   
    29   24   25 1   
    30   24   32 1   
    31   24   33 1   
    32   25   26 1   
    33   25   34 1   
    34   25   35 1   
    35   26   27 1   
    36   26   36 1   
    37   26   37 1   
    38   27   38 1   
    39   27   39 1   
    40   27   40 1   
    41   41   42 1   
    42   41   49 1   
    43   42   43 1   
    44   42   45 1   
    45   42   50 1   
    46   43   44 2   
    47   43   53 1   
    48   45   46 1   
    49   45   51 1   
    50   45   52 1   
    51   46   47 1   
    52   46   48 1   
    53   53   54 1   
    54   53   57 1   
    55   54   55 1   
    56   54   58 1   
    57   54   59 1   
    58   55   56 2   
    59   55   60 1   
    60   60   61 1   
    61   60   68 1   
    62   61   62 1   
    63   61   64 1   
    64   61   69 1   
    65   62   63 2   
    66   62   74 1   
    67   64   65 1   
    68   64   70 1   
    69   64   71 1   
    70   65   66 1   
    71   65   67 2   
    72   66   72 1   
    73   66   73 1   
    74   74   75 1   
    75   74   78 1   
    76   75   76 1   
    77   75   79 1   
    78   75   80 1   
    79   76   77 2   
    80   76   81 1   
    81   81   82 1   
    82   81   93 1   
    83   82   83 1   
    84   82   85 1   
    85   82   94 1   
    86   83   84 2   
    87   83  102 1   
    88   85   86 1   
    89   85   95 1   
    90   85   96 1   
    91   86   87 ar  
    92   86   88 ar  
    93   87   89 ar  
    94   87   97 1   
    95   88   90 ar  
    96   88   98 1   
    97   89   91 ar  
    98   89   99 1   
    99   90   91 ar  
   100   90  100 1   
   101   91   92 1   
   102   92  101 1   
   103  102  103 1   
   104  102  110 1   
   105  103  104 1   
   106  103  106 1   
   107  103  111 1   
   108  104  105 2   
   109  104  121 1   
   110  106  107 1   
   111  106  108 1   
   112  106  112 1   
   113  107  109 1   
   114  107  113 1   
   115  107  114 1   
   116  108  115 1   
   117  108  116 1   
   118  108  117 1   
   119  109  118 1   
   120  109  119 1   
   121  109  120 1   
   122  121  122 1   
   123  121  127 1   
   124  122  123 1   
   125  122  125 1   
   126  122  128 1   
   127  123  124 2   
   128  123  132 1   
   129  125  126 1   
   130  125  129 1   
   131  125  130 1   
   132  126  131 1   
   133  132  133 1   
   134  132  137 1   
   135  133  134 1   
   136  133  136 1   
   137  133  138 1   
   138  134  135 2   
   139  134  142 1   
   140  136  139 1   
   141  136  140 1   
   142  136  141 1   
   143  142  143 1   
   144  142  147 1   
   145  143  144 1   
   146  143  146 1   
   147  143  148 1   
   148  144  145 2   
   149  144  152 1   
   150  146  149 1   
   151  146  150 1   
   152  146  151 1   
   153  152  153 1   
   154  152  161 1   
   155  153  154 1   
   156  153  156 1   
   157  153  162 1   
   158  154  155 2   
   159  154  167 1   
   160  156  157 1   
   161  156  163 1   
   162  156  164 1   
   163  157  158 1   
   164  157  165 1   
   165  157  166 1   
   166  158  159 1   
   167  158  160 1   
   168  167  168 1   
   169  167  172 1   
   170  168  169 1   
   171  168  170 1   
   172  168  171 1   
   173  174  175 1   
   174  174  176 1   
   175  177  178 1   
   176  177  179 1   
@<TRIPOS>SUBSTRUCTURE
     1 MOL         1 TEMP              0 ****  ****    0 ROOT
