@<TRIPOS>MOLECULE
MOL
  186   183     1     0     0
SMALL
resp


@<TRIPOS>ATOM
      1 C1          0.6430   -2.5080    6.4960 c3        1 MOL     -0.268127
      2 C2          0.8960   -2.5150    4.9750 c         1 MOL      0.817634
      3 O1          0.2370   -3.2370    4.2730 o         1 MOL     -0.590301
      4 H1         -0.1850   -3.1770    6.7290 hc        1 MOL      0.053412
      5 H2          1.5400   -2.8470    7.0150 hc        1 MOL      0.053412
      6 H3          0.3960   -1.4980    6.8190 hc        1 MOL      0.053412
      7 N1          1.9590   -1.8120    4.5230 n         1 MOL     -0.687729
      8 C3          2.5720   -2.0020    3.1630 c3        1 MOL      0.333984
      9 C4          3.0010   -3.3920    2.6560 c         1 MOL      0.416093
     10 O2          3.4810   -4.1840    3.4510 o         1 MOL     -0.571469
     11 C5          3.7600   -1.0090    2.8870 c3        1 MOL     -0.310051
     12 C6          4.4900   -1.2160    1.5500 c         1 MOL      0.715793
     13 O3          5.4510   -2.0210    1.5640 o         1 MOL     -0.672074
     14 O4          4.0890   -0.6660    0.5280 o         1 MOL     -0.672074
     15 H4          2.3830   -1.0940    5.0810 hn        1 MOL      0.314813
     16 H5          1.8670   -1.6120    2.4230 h1        1 MOL     -0.015777
     17 H6          4.4040   -1.0070    3.7630 hc        1 MOL      0.055497
     18 H7          3.2110   -0.0730    2.7980 hc        1 MOL      0.055497
     19 N2          2.7930   -3.7350    1.3770 n         1 MOL     -0.061238
     20 C7          3.0370   -5.1160    0.7860 c3        1 MOL     -0.028311
     21 C8          3.8450   -5.2000   -0.4580 c         1 MOL      0.509724
     22 O5          4.2180   -6.2800   -0.8800 o         1 MOL     -0.610076
     23 C9          1.7360   -6.0270    0.5400 c3        1 MOL      0.100784
     24 C10         0.9050   -5.4490   -0.6270 c3        1 MOL      0.068554
     25 C11         1.0040   -6.2110    1.8200 c3        1 MOL     -0.160156
     26 C12        -0.5200   -5.9430   -0.8470 c3        1 MOL     -0.291605
     27 H8          2.2440   -3.0780    0.8450 hn        1 MOL      0.062385
     28 H9          3.6460   -5.6610    1.4960 h1        1 MOL      0.087640
     29 H10         2.0860   -7.0540    0.4330 hc        1 MOL     -0.021526
     30 H11         1.4870   -5.5610   -1.5380 hc        1 MOL      0.016456
     31 H12         0.9390   -4.3700   -0.4590 hc        1 MOL      0.016456
     32 H13         0.5910   -5.2660    2.1600 hc        1 MOL      0.033804
     33 H14         0.1790   -6.9070    1.6940 hc        1 MOL      0.033804
     34 H15         1.7090   -6.5400    2.5860 hc        1 MOL      0.033804
     35 H16        -0.4070   -7.0190   -0.9420 hc        1 MOL      0.066156
     36 H17        -1.1620   -5.5730   -0.0490 hc        1 MOL      0.066156
     37 H18        -0.8950   -5.6100   -1.8160 hc        1 MOL      0.066156
     38 N3          4.3860   -4.1020   -0.9130 n         1 MOL     -0.261324
     39 C13         5.1800   -3.9930   -2.1220 c3        1 MOL     -0.021076
     40 C14         6.3150   -3.0110   -2.0040 c         1 MOL      0.397535
     41 O6          7.0730   -2.8350   -2.9700 o         1 MOL     -0.530783
     42 C15         4.3680   -3.7540   -3.4030 c3        1 MOL     -0.093663
     43 C16         3.7110   -2.4150   -3.5710 c         1 MOL      0.718330
     44 O7          3.6940   -1.6310   -2.5720 o         1 MOL     -0.697382
     45 O8          3.2280   -2.1810   -4.6650 o         1 MOL     -0.697382
     46 H19         4.4120   -3.2990   -0.3020 hn        1 MOL      0.071572
     47 H20         5.6270   -4.9750   -2.3230 h1        1 MOL      0.089646
     48 H21         3.5490   -4.4740   -3.4360 hc        1 MOL      0.021733
     49 H22         5.0300   -4.0000   -4.2330 hc        1 MOL      0.021733
     50 N4          6.5130   -2.2980   -0.8530 n         1 MOL     -0.247410
     51 C17         7.8660   -1.7050   -0.6340 c3        1 MOL     -0.127939
     52 C18         8.0610   -0.2780   -1.2540 c         1 MOL      0.461152
     53 O9          9.1720    0.1650   -1.3950 o         1 MOL     -0.616262
     54 H23         5.9100   -2.2660   -0.0390 hn        1 MOL      0.298151
     55 H24         8.6310   -2.3950   -0.9720 h1        1 MOL      0.078457
     56 H25         8.0110   -1.6610    0.4460 h1        1 MOL      0.078457
     57 N5          7.0820    0.5520   -1.5260 n         1 MOL     -0.007872
     58 C19         7.2480    1.9700   -2.0130 c3        1 MOL     -0.125056
     59 C20         7.0790    2.9550   -0.8770 c         1 MOL      0.529921
     60 O10         7.2370    4.1600   -1.1230 o         1 MOL     -0.557445
     61 C21         6.3370    2.2660   -3.1830 c3        1 MOL     -0.199943
     62 C22         4.8310    2.0150   -2.9220 c         1 MOL      0.683955
     63 O11         4.4500    1.7640   -1.7270 o         1 MOL     -0.665412
     64 O12         4.0240    2.0790   -3.8480 o         1 MOL     -0.665412
     65 H26         6.1290    0.2750   -1.3440 hn        1 MOL      0.047827
     66 H27         8.2740    1.9860   -2.3720 h1        1 MOL      0.119102
     67 H28         6.5020    1.5520   -4.0030 hc        1 MOL      0.071534
     68 H29         6.4530    3.2700   -3.5880 hc        1 MOL      0.071534
     69 N6          6.8770    2.4660    0.3390 n         1 MOL     -0.424522
     70 C23         6.7010    3.2220    1.6400 c3        1 MOL     -0.100975
     71 C24         5.3110    3.8340    1.9270 c         1 MOL      0.479491
     72 O13         5.1890    4.5340    2.9140 o         1 MOL     -0.610150
     73 H30         6.7880    1.4620    0.4410 hn        1 MOL      0.282447
     74 H31         7.3950    4.0540    1.5670 h1        1 MOL      0.102286
     75 H32         7.0250    2.6380    2.5080 h1        1 MOL      0.102286
     76 N7          4.2840    3.5450    1.1750 n         1 MOL     -0.117708
     77 C25         2.9350    3.9920    1.4790 c3        1 MOL      0.186876
     78 C26         1.8790    2.8860    1.4290 c         1 MOL      0.310931
     79 O14         2.0980    1.9210    0.6710 o         1 MOL     -0.536282
     80 C27         2.5190    5.1380    0.5620 c3        1 MOL     -0.003625
     81 C28         3.2320    6.4710    0.8280 c3        1 MOL     -0.188877
     82 C29         3.0430    7.5440   -0.2120 c         1 MOL      0.759856
     83 N8          3.7630    8.5920   -0.1550 n         1 MOL     -0.836879
     84 O15         2.2560    7.4470   -1.1590 o         1 MOL     -0.613219
     85 H33         4.3680    2.8900    0.4110 hn        1 MOL      0.097220
     86 H34         2.8530    4.3850    2.4870 h1        1 MOL     -0.005269
     87 H35         1.4460    5.2930    0.6700 hc        1 MOL      0.000689
     88 H36         2.7390    4.7730   -0.4370 hc        1 MOL      0.000689
     89 H37         4.2870    6.2400    0.9130 hc        1 MOL      0.046442
     90 H38         2.8400    6.9690    1.7170 hc        1 MOL      0.046442
     91 H39         4.5460    8.5900    0.4840 hn        1 MOL      0.365802
     92 H40         3.7260    9.1120   -1.0140 hn        1 MOL      0.365802
     93 N9          0.7560    3.1640    2.1240 n         1 MOL     -0.315599
     94 C30        -0.3180    2.2360    2.2220 c3        1 MOL      0.000107
     95 C31        -1.4460    2.7720    1.4110 c         1 MOL      0.508996
     96 O16        -1.9820    3.7840    1.7600 o         1 MOL     -0.559848
     97 C32        -0.6640    1.9890    3.7600 c3        1 MOL     -0.023704
     98 C33        -1.9980    1.1710    3.8420 c3        1 MOL     -0.096022
     99 C34         0.4710    1.1690    4.3760 c3        1 MOL     -0.096022
    100 H41         0.6300    4.0420    2.6080 hn        1 MOL      0.294880
    101 H42        -0.0220    1.3010    1.7530 h1        1 MOL      0.223857
    102 H43        -0.8540    3.0110    4.1050 hc        1 MOL      0.013578
    103 H44        -2.7450    1.6830    3.2430 hc        1 MOL      0.015606
    104 H45        -1.8160    0.1400    3.5450 hc        1 MOL      0.015606
    105 H46        -2.3840    1.1450    4.8570 hc        1 MOL      0.015606
    106 H47         1.4600    1.5850    4.1990 hc        1 MOL      0.015606
    107 H48         0.3760    1.0730    5.4650 hc        1 MOL      0.015606
    108 H49         0.3370    0.1510    3.9990 hc        1 MOL      0.015606
    109 N10        -1.6800    2.2530    0.2070 n         1 MOL     -0.366945
    110 C35        -2.8740    2.4700   -0.5980 c3        1 MOL      0.201243
    111 C36        -4.1390    2.1110    0.1890 c         1 MOL      0.161689
    112 O17        -4.0480    1.2550    1.0640 o         1 MOL     -0.175939
    113 C37        -2.8110    1.4920   -1.7920 c3        1 MOL     -0.317124
    114 C38        -3.8780    1.8350   -2.8250 c         1 MOL      0.599026
    115 N11        -3.7620    2.9710   -3.4330 n         1 MOL     -0.743288
    116 O18        -4.8100    1.0840   -3.0220 o         1 MOL     -0.475512
    117 H50        -1.1810    1.4130   -0.0170 hn        1 MOL      0.194942
    118 H51        -2.8490    3.4870   -0.9810 h1        1 MOL      0.030298
    119 H52        -2.9860    0.4590   -1.5040 hc        1 MOL      0.129625
    120 H53        -1.8230    1.5460   -2.2470 hc        1 MOL      0.129625
    121 H54        -2.9330    3.5360   -3.2800 hn        1 MOL      0.362401
    122 H55        -4.4720    3.1590   -4.1230 hn        1 MOL      0.362401
    123 N12        -5.3200    2.5430   -0.2610 n         1 MOL     -0.288845
    124 C39        -6.5910    1.9170    0.1380 c3        1 MOL      0.073638
    125 C40        -6.7090    0.3810    0.1440 c         1 MOL      0.581866
    126 O19        -7.1380   -0.2690    1.1220 o         1 MOL     -0.574253
    127 C41        -7.6920    2.4930   -0.7860 c3        1 MOL      0.027841
    128 C42        -9.1650    2.2090   -0.4930 ca        1 MOL     -0.023145
    129 C43        -9.6770    2.3560    0.8050 ca        1 MOL     -0.219786
    130 C44        -9.8730    1.5830   -1.5220 ca        1 MOL     -0.219786
    131 C45       -10.9080    1.8460    1.1040 ca        1 MOL     -0.112673
    132 C46       -11.2230    1.1700   -1.2500 ca        1 MOL     -0.112673
    133 C47       -11.6930    1.2760    0.0740 ca        1 MOL      0.226128
    134 O20       -12.9060    0.7760    0.5150 oh        1 MOL     -0.530189
    135 H56        -5.2170    3.3060   -0.9200 hn        1 MOL      0.213844
    136 H57        -6.8510    2.2630    1.1350 h1        1 MOL      0.021942
    137 H58        -7.4780    2.1270   -1.7930 hc        1 MOL      0.004570
    138 H59        -7.5340    3.5650   -0.8280 hc        1 MOL      0.004570
    139 H60        -9.0130    2.5950    1.6250 ha        1 MOL      0.161614
    140 H61        -9.3620    1.6180   -2.4720 ha        1 MOL      0.161614
    141 H62       -11.2450    1.9630    2.1250 ha        1 MOL      0.108455
    142 H63       -11.9010    0.8890   -2.0480 ha        1 MOL      0.108455
    143 H64       -13.2280    0.0500   -0.0210 ho        1 MOL      0.386738
    144 N13        -6.3000   -0.2850   -0.9090 n         1 MOL     -0.264459
    145 C48        -6.3680   -1.7140   -0.9960 c3        1 MOL      0.094709
    146 C49        -5.4100   -2.3750    0.0420 c         1 MOL      0.336483
    147 O21        -5.7630   -3.3900    0.5710 o         1 MOL     -0.483615
    148 C50        -6.0660   -2.1970   -2.4390 c3        1 MOL     -0.079049
    149 C51        -7.1190   -1.6550   -3.4370 c3        1 MOL     -0.112329
    150 C52        -7.1320   -2.3820   -4.8090 c         1 MOL      0.725036
    151 O22        -7.3800   -3.6020   -4.9090 o         1 MOL     -0.744973
    152 O23        -6.9710   -1.6550   -5.8030 o         1 MOL     -0.744973
    153 H65        -5.9310    0.2720   -1.6690 hn        1 MOL      0.196119
    154 H66        -7.4060   -1.9520   -0.7510 h1        1 MOL      0.065108
    155 H67        -6.1900   -3.2790   -2.3300 hc        1 MOL      0.026791
    156 H68        -5.0810   -1.8590   -2.7420 hc        1 MOL      0.026791
    157 H69        -6.6520   -0.6920   -3.6510 hc        1 MOL     -0.019559
    158 H70        -8.0960   -1.3930   -3.0350 hc        1 MOL     -0.019559
    159 N14        -4.2700   -1.7050    0.4120 n         1 MOL     -0.174327
    160 C53        -3.3420   -2.2100    1.4280 c3        1 MOL     -0.090862
    161 C54        -3.9360   -1.9910    2.8590 c         1 MOL      0.409944
    162 O24        -3.7700   -2.7550    3.8360 o         1 MOL     -0.550168
    163 C55        -2.0380   -1.4460    1.2110 c3        1 MOL      0.104854
    164 C56        -1.3170   -2.0050    0.0140 c3        1 MOL     -0.225635
    165 C57         0.0230   -1.2120   -0.1880 c         1 MOL      0.619991
    166 O25         1.1380   -1.7400    0.0340 o         1 MOL     -0.690611
    167 O26        -0.0430   -0.0250   -0.4910 o         1 MOL     -0.690611
    168 H71        -4.0700   -0.7960    0.0240 hn        1 MOL      0.104099
    169 H72        -3.3370   -3.2870    1.3190 h1        1 MOL      0.120159
    170 H73        -1.4450   -1.4210    2.1260 hc        1 MOL      0.052633
    171 H74        -2.3540   -0.4160    1.0220 hc        1 MOL      0.052633
    172 H75        -1.9700   -1.8960   -0.8540 hc        1 MOL      0.055384
    173 H76        -1.0660   -3.0590    0.1700 hc        1 MOL      0.055384
    174 N15        -4.7190   -0.8890    2.9460 n         1 MOL      0.053202
    175 C58        -5.4670   -0.5910    4.1430 c3        1 MOL     -0.271738
    176 H77        -5.8700   -1.5150    4.5580 h1        1 MOL      0.082980
    177 H78        -4.8100   -0.1210    4.8750 h1        1 MOL      0.082980
    178 H79        -6.2850    0.0870    3.9010 h1        1 MOL      0.082980
    179 H80        -4.7110   -0.1780    2.2320 hn        1 MOL     -0.015439
    180 Ca1         2.4790    0.2030   -1.2010 Ca        1 MOL      1.676358
    181 O27         1.1020   -0.1940   -3.4570 oh        1 MOL     -0.793030
    182 H81         1.0010   -1.1480   -3.5430 ho        1 MOL      0.394043
    183 H82         0.2670    0.1620   -3.7720 ho        1 MOL      0.394043
    184 O28         1.7370    2.8340   -1.9330 oh        1 MOL     -0.793030
    185 H83         1.4580    3.3720   -2.6830 ho        1 MOL      0.394043
    186 H84         2.6550    3.0790   -1.7980 ho        1 MOL      0.394043
@<TRIPOS>BOND
     1    1    2 1   
     2    1    4 1   
     3    1    5 1   
     4    1    6 1   
     5    2    3 2   
     6    2    7 1   
     7    7    8 1   
     8    7   15 1   
     9    8    9 1   
    10    8   11 1   
    11    8   16 1   
    12    9   10 2   
    13    9   19 1   
    14   11   12 1   
    15   11   17 1   
    16   11   18 1   
    17   12   13 1   
    18   12   14 1   
    19   19   20 1   
    20   19   27 1   
    21   20   21 1   
    22   20   23 1   
    23   20   28 1   
    24   21   22 2   
    25   21   38 1   
    26   23   24 1   
    27   23   25 1   
    28   23   29 1   
    29   24   26 1   
    30   24   30 1   
    31   24   31 1   
    32   25   32 1   
    33   25   33 1   
    34   25   34 1   
    35   26   35 1   
    36   26   36 1   
    37   26   37 1   
    38   38   39 1   
    39   38   46 1   
    40   39   40 1   
    41   39   42 1   
    42   39   47 1   
    43   40   41 2   
    44   40   50 1   
    45   42   43 1   
    46   42   48 1   
    47   42   49 1   
    48   43   44 1   
    49   43   45 1   
    50   50   51 1   
    51   50   54 1   
    52   51   52 1   
    53   51   55 1   
    54   51   56 1   
    55   52   53 2   
    56   52   57 1   
    57   57   58 1   
    58   57   65 1   
    59   58   59 1   
    60   58   61 1   
    61   58   66 1   
    62   59   60 2   
    63   59   69 1   
    64   61   62 1   
    65   61   67 1   
    66   61   68 1   
    67   62   63 1   
    68   62   64 1   
    69   69   70 1   
    70   69   73 1   
    71   70   71 1   
    72   70   74 1   
    73   70   75 1   
    74   71   72 2   
    75   71   76 1   
    76   76   77 1   
    77   76   85 1   
    78   77   78 1   
    79   77   80 1   
    80   77   86 1   
    81   78   79 2   
    82   78   93 1   
    83   80   81 1   
    84   80   87 1   
    85   80   88 1   
    86   81   82 1   
    87   81   89 1   
    88   81   90 1   
    89   82   83 1   
    90   82   84 2   
    91   83   91 1   
    92   83   92 1   
    93   93   94 1   
    94   93  100 1   
    95   94   95 1   
    96   94   97 1   
    97   94  101 1   
    98   95   96 2   
    99   95  109 1   
   100   97   98 1   
   101   97   99 1   
   102   97  102 1   
   103   98  103 1   
   104   98  104 1   
   105   98  105 1   
   106   99  106 1   
   107   99  107 1   
   108   99  108 1   
   109  109  110 1   
   110  109  117 1   
   111  110  111 1   
   112  110  113 1   
   113  110  118 1   
   114  111  112 2   
   115  111  123 1   
   116  113  114 1   
   117  113  119 1   
   118  113  120 1   
   119  114  115 1   
   120  114  116 2   
   121  115  121 1   
   122  115  122 1   
   123  123  124 1   
   124  123  135 1   
   125  124  125 1   
   126  124  127 1   
   127  124  136 1   
   128  125  126 2   
   129  125  144 1   
   130  127  128 1   
   131  127  137 1   
   132  127  138 1   
   133  128  129 ar  
   134  128  130 ar  
   135  129  131 ar  
   136  129  139 1   
   137  130  132 ar  
   138  130  140 1   
   139  131  133 ar  
   140  131  141 1   
   141  132  133 ar  
   142  132  142 1   
   143  133  134 1   
   144  134  143 1   
   145  144  145 1   
   146  144  153 1   
   147  145  146 1   
   148  145  148 1   
   149  145  154 1   
   150  146  147 2   
   151  146  159 1   
   152  148  149 1   
   153  148  155 1   
   154  148  156 1   
   155  149  150 1   
   156  149  157 1   
   157  149  158 1   
   158  150  151 1   
   159  150  152 1   
   160  159  160 1   
   161  159  168 1   
   162  160  161 1   
   163  160  163 1   
   164  160  169 1   
   165  161  162 2   
   166  161  174 1   
   167  163  164 1   
   168  163  170 1   
   169  163  171 1   
   170  164  165 1   
   171  164  172 1   
   172  164  173 1   
   173  165  166 1   
   174  165  167 1   
   175  174  175 1   
   176  174  179 1   
   177  175  176 1   
   178  175  177 1   
   179  175  178 1   
   180  181  182 1   
   181  181  183 1   
   182  184  185 1   
   183  184  186 1   
@<TRIPOS>SUBSTRUCTURE
     1 MOL         1 TEMP              0 ****  ****    0 ROOT
