@<TRIPOS>MOLECULE
MOL
  175   173     1     0     0
SMALL
resp


@<TRIPOS>ATOM
      1 C1         -0.1770   -3.6600    5.6620 c3        1 MOL     -0.322087
      2 C2          0.3430   -3.5800    4.2360 c         1 MOL      0.695427
      3 O1         -0.5130   -3.7590    3.3580 o         1 MOL     -0.514808
      4 H1          0.2940   -2.8820    6.2640 hc        1 MOL      0.072002
      5 H2         -1.2570   -3.5160    5.6650 hc        1 MOL      0.072002
      6 H3          0.0610   -4.6380    6.0820 hc        1 MOL      0.072002
      7 N1          1.6960   -3.5780    4.0640 n         1 MOL     -0.655233
      8 C3          2.2770   -3.2780    2.7200 c3        1 MOL      0.198997
      9 C4          2.3290   -4.5310    1.8720 c         1 MOL      0.515983
     10 O2          2.5680   -5.7110    2.3880 o         1 MOL     -0.563190
     11 C5          3.7430   -2.7360    2.8420 c3        1 MOL     -0.267403
     12 C6          4.5030   -2.6350    1.5330 c         1 MOL      0.669679
     13 O3          5.3940   -3.4960    1.3820 o         1 MOL     -0.575699
     14 O4          4.0590   -1.8500    0.6390 o         1 MOL     -0.575699
     15 H4          2.2780   -3.4790    4.8810 hn        1 MOL      0.342327
     16 H5          1.6750   -2.5360    2.1920 h1        1 MOL      0.036647
     17 H6          4.2750   -3.4440    3.4700 hc        1 MOL      0.029680
     18 H7          3.6460   -1.7830    3.3630 hc        1 MOL      0.029680
     19 N2          2.1840   -4.3530    0.5490 n         1 MOL     -0.474522
     20 C7          2.5280   -5.3750   -0.4220 c3        1 MOL      0.336680
     21 C8          3.5550   -5.0760   -1.4800 c         1 MOL      0.395111
     22 O5          3.8120   -5.9320   -2.3110 o         1 MOL     -0.589470
     23 C9          1.1580   -5.7110   -0.9880 c3        1 MOL     -0.165273
     24 H8          1.9440   -3.4520    0.1540 hn        1 MOL      0.286199
     25 H9          2.8850   -6.2280    0.1570 h1        1 MOL      0.003360
     26 H10         0.5830   -4.8340   -1.2640 hc        1 MOL      0.027774
     27 H11         1.3740   -6.2870   -1.8910 hc        1 MOL      0.027774
     28 H12         0.5280   -6.3650   -0.3970 hc        1 MOL      0.027774
     29 N3          4.1140   -3.8680   -1.5840 n         1 MOL     -0.136420
     30 C10         5.0010   -3.4310   -2.6720 c3        1 MOL      0.215412
     31 C11         6.1310   -2.5360   -2.2830 c         1 MOL      0.189285
     32 O6          7.1380   -2.4730   -3.0860 o         1 MOL     -0.552464
     33 C12         4.2210   -2.6460   -3.7230 c3        1 MOL     -0.383019
     34 C13         3.2020   -1.6460   -3.2690 c         1 MOL      0.745051
     35 O7          3.3380   -1.1710   -2.1230 o         1 MOL     -0.681455
     36 O8          2.2660   -1.3290   -4.0180 o         1 MOL     -0.681455
     37 H13         3.8510   -3.1280   -0.9390 hn        1 MOL      0.105497
     38 H14         5.4510   -4.2750   -3.2010 h1        1 MOL      0.066100
     39 H15         3.7100   -3.3960   -4.3230 hc        1 MOL      0.082479
     40 H16         4.9660   -2.0410   -4.2550 hc        1 MOL      0.082479
     41 N4          6.2200   -2.0820   -1.0480 n         1 MOL      0.178302
     42 C14         7.2180   -1.1200   -0.5720 c3        1 MOL     -0.131803
     43 C15         7.2350    0.3060   -0.9700 c         1 MOL      0.358968
     44 O9          8.3040    0.9740   -0.8800 o         1 MOL     -0.561493
     45 H17         5.5140   -2.2820   -0.3560 hn        1 MOL     -0.230895
     46 H18         8.2030   -1.5750   -0.6400 h1        1 MOL      0.093417
     47 H19         7.0500   -0.9790    0.4900 h1        1 MOL      0.093417
     48 N5          6.0800    0.8160   -1.4750 n         1 MOL     -0.065079
     49 C16         6.1090    2.1520   -2.0600 c3        1 MOL     -0.003999
     50 C17         6.2370    3.2760   -1.0470 c         1 MOL      0.381465
     51 O10         6.4250    4.4910   -1.3610 o         1 MOL     -0.514014
     52 C18         4.9620    2.3840   -3.1240 c3        1 MOL     -0.195612
     53 C19         3.5920    2.2440   -2.6730 c         1 MOL      0.648330
     54 N6          2.5850    2.4050   -3.4770 n         1 MOL     -0.619048
     55 O11         3.3660    2.1290   -1.4260 o         1 MOL     -0.745867
     56 H20         5.3120    0.1630   -1.5260 hn        1 MOL      0.191484
     57 H21         6.9700    2.2500   -2.7220 h1        1 MOL      0.096402
     58 H22         5.1760    1.7080   -3.9450 hc        1 MOL      0.076608
     59 H23         5.0450    3.4230   -3.4330 hc        1 MOL      0.076608
     60 H24         2.7360    2.5640   -4.4600 hn        1 MOL      0.331512
     61 H25         1.6360    2.2170   -3.1690 hn        1 MOL      0.331512
     62 N7          6.1080    2.9490    0.2700 n         1 MOL     -0.184706
     63 C20         6.1110    3.9800    1.3820 c3        1 MOL     -0.360886
     64 C21         4.7740    4.7430    1.5120 c         1 MOL      0.529137
     65 O12         4.8110    5.8760    1.9830 o         1 MOL     -0.558997
     66 H26         6.0940    1.9510    0.3810 hn        1 MOL      0.215522
     67 H27         6.8450    4.7050    1.0100 h1        1 MOL      0.155748
     68 H28         6.5160    3.5980    2.3150 h1        1 MOL      0.155748
     69 N8          3.6970    4.2020    1.0010 n         1 MOL     -0.123453
     70 C22         2.2760    4.6670    1.1260 c3        1 MOL     -0.403419
     71 C23         1.3230    3.4850    1.3110 c         1 MOL      0.598403
     72 O13         1.5290    2.4380    0.6940 o         1 MOL     -0.545230
     73 C24         1.9390    5.5060   -0.1370 c3        1 MOL      0.665097
     74 C25         2.2400    6.9980   -0.0610 c3        1 MOL     -0.429919
     75 O14         2.4940    4.9880   -1.3840 oh        1 MOL     -0.675628
     76 H29         3.7680    3.3110    0.5250 hn        1 MOL      0.215210
     77 H30         2.1610    5.2820    2.0140 h1        1 MOL      0.116926
     78 H31         0.8870    5.3670   -0.3620 h1        1 MOL     -0.054214
     79 H32         2.5090    4.0300   -1.3140 ho        1 MOL      0.427282
     80 H33         3.1840    7.3020   -0.5170 hc        1 MOL      0.102012
     81 H34         1.3650    7.5010   -0.4710 hc        1 MOL      0.102012
     82 H35         2.3220    7.3390    0.9650 hc        1 MOL      0.102012
     83 N9          0.1820    3.7300    2.0660 n         1 MOL     -0.489029
     84 C26        -0.9490    2.7690    2.1460 c3        1 MOL      0.032497
     85 C27        -1.7660    2.9450    0.8900 c         1 MOL      0.556441
     86 O15        -2.2780    4.0380    0.6410 o         1 MOL     -0.585801
     87 C28        -1.8090    2.9700    3.4370 c3        1 MOL     -0.011481
     88 C29        -1.0670    2.2030    4.5230 c3        1 MOL      0.146660
     89 C30        -3.3270    2.4800    3.2950 c3        1 MOL     -0.299615
     90 C31        -1.6010    2.3920    5.9120 c3        1 MOL     -0.123052
     91 H36         0.0460    4.7080    2.2930 hn        1 MOL      0.284673
     92 H37        -0.4690    1.7900    2.1170 h1        1 MOL      0.021629
     93 H38        -1.7420    4.0360    3.6550 hc        1 MOL      0.039917
     94 H39        -0.0240    2.4960    4.5740 hc        1 MOL     -0.033720
     95 H40        -1.0510    1.1420    4.2600 hc        1 MOL     -0.033720
     96 H41        -3.2120    1.4490    2.9760 hc        1 MOL      0.085412
     97 H42        -3.8190    2.4730    4.2620 hc        1 MOL      0.085412
     98 H43        -3.8050    3.0980    2.5290 hc        1 MOL      0.085412
     99 H44        -1.9530    3.4080    6.0800 hc        1 MOL      0.019864
    100 H45        -2.3840    1.6540    6.1210 hc        1 MOL      0.019864
    101 H46        -0.9150    2.2900    6.7510 hc        1 MOL      0.019864
    102 N10        -1.8000    1.8840    0.0910 n         1 MOL     -0.168759
    103 C32        -2.6750    1.8370   -1.1170 c3        1 MOL     -0.008510
    104 C33        -4.1640    1.5130   -0.7730 c         1 MOL      0.443812
    105 O16        -4.4700    1.0700    0.3510 o         1 MOL     -0.295772
    106 C34        -2.0780    0.8190   -2.1270 c3        1 MOL     -0.282184
    107 C35        -0.5530    0.9700   -2.1950 c         1 MOL      0.780262
    108 O17         0.2290    0.2730   -1.4980 o         1 MOL     -0.676351
    109 O18        -0.0980    1.7230   -3.0690 o         1 MOL     -0.676351
    110 H47        -1.2320    1.1000    0.3880 hn        1 MOL      0.049950
    111 H48        -2.5920    2.8610   -1.5000 h1        1 MOL      0.075274
    112 H49        -2.5610    1.0360   -3.0890 hc        1 MOL      0.097317
    113 H50        -2.2810   -0.2080   -1.8140 hc        1 MOL      0.097317
    114 N11        -5.1350    1.7490   -1.6590 n         1 MOL     -0.622330
    115 C36        -6.5410    1.3740   -1.4170 c3        1 MOL      0.276969
    116 C37        -6.7130   -0.1260   -1.0320 c         1 MOL      0.427458
    117 O19        -7.3410   -0.3830    0.0300 o         1 MOL     -0.487251
    118 C38        -7.4950    1.8400   -2.5210 c3        1 MOL     -0.132787
    119 C39        -8.9710    1.5070   -2.3240 ca        1 MOL      0.054579
    120 C40        -9.7150    0.8390   -3.3110 ca        1 MOL     -0.143067
    121 C41        -9.6140    1.7900   -1.1010 ca        1 MOL     -0.143067
    122 C42       -11.0920    0.4850   -3.0630 ca        1 MOL     -0.080625
    123 C43       -10.9300    1.4010   -0.8180 ca        1 MOL     -0.080625
    124 C44       -11.6490    0.7150   -1.8130 ca        1 MOL     -0.177636
    125 H51        -4.9620    2.2330   -2.5270 hn        1 MOL      0.346867
    126 H52        -6.8510    1.9210   -0.5260 h1        1 MOL      0.069710
    127 H53        -7.0810    1.4760   -3.4630 hc        1 MOL      0.050122
    128 H54        -7.4880    2.9180   -2.7070 hc        1 MOL      0.050122
    129 H55        -9.3130    0.6340   -4.2940 ha        1 MOL      0.101356
    130 H56        -9.0170    2.2160   -0.3100 ha        1 MOL      0.101356
    131 H57       -11.6450   -0.1180   -3.7780 ha        1 MOL      0.105706
    132 H58       -11.3090    1.7770    0.1280 ha        1 MOL      0.105706
    133 H59       -12.5730    0.2480   -1.5130 ha        1 MOL      0.124938
    134 N12        -6.1530   -1.1220   -1.7680 n         1 MOL     -0.173041
    135 C45        -5.9950   -2.5820   -1.4580 c3        1 MOL     -0.061281
    136 C46        -5.2720   -2.8530   -0.1040 c         1 MOL      0.288026
    137 O20        -5.3530   -4.0150    0.3870 o         1 MOL     -0.515214
    138 C47        -5.2050   -3.1120   -2.6460 c3        1 MOL     -0.081586
    139 C48        -5.8170   -2.3000   -3.8140 c3        1 MOL     -0.023110
    140 C49        -5.9890   -0.9620   -3.1380 c3        1 MOL      0.188225
    141 H60        -6.9420   -3.1220   -1.3880 h1        1 MOL      0.115169
    142 H61        -4.1670   -2.7760   -2.5670 hc        1 MOL      0.068816
    143 H62        -5.2920   -4.1800   -2.8550 hc        1 MOL      0.068816
    144 H63        -5.2790   -2.3000   -4.7540 hc        1 MOL      0.018055
    145 H64        -6.8320   -2.7080   -3.8800 hc        1 MOL      0.018055
    146 H65        -5.2130   -0.2440   -3.4170 h1        1 MOL     -0.041662
    147 H66        -6.8690   -0.5870   -3.6460 h1        1 MOL     -0.041662
    148 N13        -4.7190   -1.8230    0.4990 n         1 MOL      0.028039
    149 C50        -4.0710   -1.9570    1.8170 c3        1 MOL     -0.111403
    150 C51        -4.8630   -1.2290    2.9090 c         1 MOL      0.460873
    151 O21        -4.9420   -1.6430    4.0340 o         1 MOL     -0.560797
    152 C52        -2.6550   -1.4800    1.6970 c3        1 MOL     -0.020478
    153 C53        -1.7160   -2.1950    0.6630 c3        1 MOL     -0.020980
    154 C54        -0.2810   -1.6190    0.6510 c         1 MOL      0.402752
    155 O22        -0.1210   -0.5500    1.3320 o         1 MOL     -0.598807
    156 O23         0.6600   -2.1440   -0.0430 o         1 MOL     -0.598807
    157 H67        -4.8440   -0.9020    0.1190 hn        1 MOL     -0.023913
    158 H68        -4.0380   -3.0300    2.0070 h1        1 MOL      0.108274
    159 H69        -2.2060   -1.5370    2.6800 hc        1 MOL      0.060754
    160 H70        -2.6590   -0.4090    1.5060 hc        1 MOL      0.060754
    161 H71        -2.1310   -2.1830   -0.3490 hc        1 MOL      0.059892
    162 H72        -1.7030   -3.2550    0.9140 hc        1 MOL      0.059892
    163 N14        -5.5320   -0.1590    2.5420 n         1 MOL     -0.001133
    164 C55        -6.4190    0.5790    3.4210 c3        1 MOL     -0.162428
    165 H73        -5.8290    1.1950    4.0990 h1        1 MOL      0.063342
    166 H74        -7.0720    1.2180    2.8260 h1        1 MOL      0.063342
    167 H75        -7.0230   -0.1210    3.9990 h1        1 MOL      0.063342
    168 H76        -5.3420    0.1490    1.5960 hn        1 MOL     -0.012262
    169 Ca1         2.2310   -0.0070   -0.0870 Ca        1 MOL      1.664843
    170 O24         4.1600    1.1180    1.5110 oh        1 MOL     -0.763454
    171 H77         3.6610    1.2020    2.3140 ho        1 MOL      0.370849
    172 H78         5.0650    0.9790    1.7970 ho        1 MOL      0.370849
    173 O25         1.8350    0.1770    2.6120 oh        1 MOL     -0.763454
    174 H79         0.9330   -0.0640    2.3850 ho        1 MOL      0.370849
    175 H80         1.9420   -0.1330    3.5130 ho        1 MOL      0.370849
@<TRIPOS>BOND
     1    1    2 1   
     2    1    4 1   
     3    1    5 1   
     4    1    6 1   
     5    2    3 2   
     6    2    7 1   
     7    7    8 1   
     8    7   15 1   
     9    8    9 1   
    10    8   11 1   
    11    8   16 1   
    12    9   10 2   
    13    9   19 1   
    14   11   12 1   
    15   11   17 1   
    16   11   18 1   
    17   12   13 1   
    18   12   14 1   
    19   19   20 1   
    20   19   24 1   
    21   20   21 1   
    22   20   23 1   
    23   20   25 1   
    24   21   22 2   
    25   21   29 1   
    26   23   26 1   
    27   23   27 1   
    28   23   28 1   
    29   29   30 1   
    30   29   37 1   
    31   30   31 1   
    32   30   33 1   
    33   30   38 1   
    34   31   32 2   
    35   31   41 1   
    36   33   34 1   
    37   33   39 1   
    38   33   40 1   
    39   34   35 1   
    40   34   36 1   
    41   41   42 1   
    42   41   45 1   
    43   42   43 1   
    44   42   46 1   
    45   42   47 1   
    46   43   44 2   
    47   43   48 1   
    48   48   49 1   
    49   48   56 1   
    50   49   50 1   
    51   49   52 1   
    52   49   57 1   
    53   50   51 2   
    54   50   62 1   
    55   52   53 1   
    56   52   58 1   
    57   52   59 1   
    58   53   54 1   
    59   53   55 2   
    60   54   60 1   
    61   54   61 1   
    62   62   63 1   
    63   62   66 1   
    64   63   64 1   
    65   63   67 1   
    66   63   68 1   
    67   64   65 2   
    68   64   69 1   
    69   69   70 1   
    70   69   76 1   
    71   70   71 1   
    72   70   73 1   
    73   70   77 1   
    74   71   72 2   
    75   71   83 1   
    76   73   74 1   
    77   73   75 1   
    78   73   78 1   
    79   74   80 1   
    80   74   81 1   
    81   74   82 1   
    82   75   79 1   
    83   83   84 1   
    84   83   91 1   
    85   84   85 1   
    86   84   87 1   
    87   84   92 1   
    88   85   86 2   
    89   85  102 1   
    90   87   88 1   
    91   87   89 1   
    92   87   93 1   
    93   88   90 1   
    94   88   94 1   
    95   88   95 1   
    96   89   96 1   
    97   89   97 1   
    98   89   98 1   
    99   90   99 1   
   100   90  100 1   
   101   90  101 1   
   102  102  103 1   
   103  102  110 1   
   104  103  104 1   
   105  103  106 1   
   106  103  111 1   
   107  104  105 2   
   108  104  114 1   
   109  106  107 1   
   110  106  112 1   
   111  106  113 1   
   112  107  108 1   
   113  107  109 1   
   114  114  115 1   
   115  114  125 1   
   116  115  116 1   
   117  115  118 1   
   118  115  126 1   
   119  116  117 2   
   120  116  134 1   
   121  118  119 1   
   122  118  127 1   
   123  118  128 1   
   124  119  120 ar  
   125  119  121 ar  
   126  120  122 ar  
   127  120  129 1   
   128  121  123 ar  
   129  121  130 1   
   130  122  124 ar  
   131  122  131 1   
   132  123  124 ar  
   133  123  132 1   
   134  124  133 1   
   135  134  135 1   
   136  134  140 1   
   137  135  136 1   
   138  135  138 1   
   139  135  141 1   
   140  136  137 2   
   141  136  148 1   
   142  138  139 1   
   143  138  142 1   
   144  138  143 1   
   145  139  140 1   
   146  139  144 1   
   147  139  145 1   
   148  140  146 1   
   149  140  147 1   
   150  148  149 1   
   151  148  157 1   
   152  149  150 1   
   153  149  152 1   
   154  149  158 1   
   155  150  151 2   
   156  150  163 1   
   157  152  153 1   
   158  152  159 1   
   159  152  160 1   
   160  153  154 1   
   161  153  161 1   
   162  153  162 1   
   163  154  155 1   
   164  154  156 1   
   165  163  164 1   
   166  163  168 1   
   167  164  165 1   
   168  164  166 1   
   169  164  167 1   
   170  170  171 1   
   171  170  172 1   
   172  173  174 1   
   173  173  175 1   
@<TRIPOS>SUBSTRUCTURE
     1 MOL         1 TEMP              0 ****  ****    0 ROOT
