@<TRIPOS>MOLECULE
MOL
  172   171     1     0     0
SMALL
resp


@<TRIPOS>ATOM
      1 C1         -1.7270    3.7630    5.8130 c3        1 MOL     -0.278089
      2 C2         -1.5110    3.2680    4.4170 c         1 MOL      0.792999
      3 O1         -0.5480    3.6720    3.7970 o         1 MOL     -0.586819
      4 H1         -2.7800    3.6600    6.0750 hc        1 MOL      0.060704
      5 H2         -1.1220    3.1760    6.5040 hc        1 MOL      0.060704
      6 H3         -1.4380    4.8120    5.8760 hc        1 MOL      0.060704
      7 N1         -2.3660    2.3730    3.9400 n         1 MOL     -0.631457
      8 C3         -2.2670    2.0470    2.5310 c3        1 MOL     -0.025910
      9 C4         -2.6420    3.2270    1.6840 c         1 MOL      0.554825
     10 O2         -3.6200    3.9070    1.9410 o         1 MOL     -0.571421
     11 C5         -3.3420    0.9280    2.2620 c3        1 MOL     -0.103680
     12 C6         -3.3020    0.4130    0.8060 c         1 MOL      0.521804
     13 O3         -3.4950   -0.7990    0.4950 o         1 MOL     -0.555307
     14 O4         -3.1000    1.2220   -0.1100 o         1 MOL     -0.555307
     15 H4         -3.1280    1.9360    4.4280 hn        1 MOL      0.334888
     16 H5         -1.2700    1.6530    2.3010 h1        1 MOL      0.133150
     17 H6         -4.3440    1.2700    2.5080 hc        1 MOL      0.070544
     18 H7         -3.1600    0.1130    2.9620 hc        1 MOL      0.070544
     19 N2         -1.9120    3.5840    0.6340 n         1 MOL     -0.240608
     20 C7         -1.9040    4.8500   -0.0080 c3        1 MOL      0.169854
     21 C8         -2.7980    4.8960   -1.2890 c         1 MOL      0.387292
     22 O5         -2.9480    5.9130   -1.9410 o         1 MOL     -0.565399
     23 C9         -0.4490    5.2120   -0.2920 c3        1 MOL     -0.231701
     24 H8         -1.2980    2.8430    0.3210 hn        1 MOL      0.111020
     25 H9         -2.2950    5.6350    0.6360 h1        1 MOL      0.048161
     26 H10        -0.2910    6.2730   -0.5120 hc        1 MOL      0.064677
     27 H11         0.1540    5.0950    0.6030 hc        1 MOL      0.064677
     28 H12        -0.0640    4.6050   -1.1070 hc        1 MOL      0.064677
     29 N3         -3.3690    3.7270   -1.6580 n         1 MOL     -0.114880
     30 C10        -4.4530    3.5510   -2.5960 c3        1 MOL      0.248057
     31 C11        -5.6910    3.1300   -1.7150 c         1 MOL      0.289797
     32 O6         -6.8280    3.2610   -2.1970 o         1 MOL     -0.534983
     33 C12        -4.2570    2.5630   -3.7640 c3        1 MOL     -0.429338
     34 C13        -3.6460    1.2320   -3.4820 c         1 MOL      0.888875
     35 O7         -4.2490    0.3650   -2.8190 o         1 MOL     -0.787978
     36 O8         -2.3990    0.9960   -3.8180 o         1 MOL     -0.787978
     37 H13        -3.1780    2.8970   -1.1110 hn        1 MOL      0.106173
     38 H14        -4.7650    4.4800   -3.0940 h1        1 MOL      0.054202
     39 H15        -3.6310    3.0700   -4.5000 hc        1 MOL      0.100875
     40 H16        -5.2750    2.4040   -4.1110 hc        1 MOL      0.100875
     41 N4         -5.4510    2.5780   -0.4990 n         1 MOL      0.046387
     42 C14        -6.4720    2.3310    0.5400 c3        1 MOL     -0.066383
     43 C15        -6.8530    0.8800    0.5870 c         1 MOL      0.403851
     44 O9         -7.6880    0.5960    1.4910 o         1 MOL     -0.616446
     45 H17        -4.5030    2.3430   -0.2650 hn        1 MOL     -0.263972
     46 H18        -7.3680    2.9450    0.3880 h1        1 MOL      0.104465
     47 H19        -6.1830    2.5370    1.5710 h1        1 MOL      0.104465
     48 N5         -6.4730   -0.0720   -0.2160 n         1 MOL     -0.055005
     49 C16        -7.0640   -1.4150   -0.3030 c3        1 MOL      0.058304
     50 C17        -6.6870   -2.3700    0.8370 c         1 MOL      0.335714
     51 O10        -7.1060   -3.5000    0.8060 o         1 MOL     -0.494285
     52 C18        -6.7690   -1.8890   -1.7300 c3        1 MOL     -0.263551
     53 C19        -7.6020   -1.2360   -2.7720 c         1 MOL      0.565320
     54 N6         -6.8990   -0.3690   -3.4370 n         1 MOL     -0.614367
     55 O11        -8.7700   -1.3930   -2.9660 o         1 MOL     -0.572562
     56 H20        -5.8280    0.1360   -0.9660 hn        1 MOL      0.163290
     57 H21        -8.1550   -1.2920   -0.2900 h1        1 MOL      0.098266
     58 H22        -7.1060   -2.9220   -1.7480 hc        1 MOL      0.094073
     59 H23        -5.7160   -1.7470   -1.9780 hc        1 MOL      0.094073
     60 H24        -5.8910   -0.3800   -3.3030 hn        1 MOL      0.306032
     61 H25        -7.3850   -0.0110   -4.2480 hn        1 MOL      0.306032
     62 N7         -5.7960   -1.9990    1.7560 n         1 MOL     -0.068533
     63 C20        -5.3370   -2.7870    2.9400 c3        1 MOL     -0.262185
     64 C21        -4.2450   -3.8560    2.5110 c         1 MOL      0.471594
     65 O12        -4.1810   -5.0370    2.9690 o         1 MOL     -0.561945
     66 H26        -5.4550   -1.0620    1.5960 hn        1 MOL      0.097277
     67 H27        -6.1310   -3.3080    3.4700 h1        1 MOL      0.122387
     68 H28        -4.8270   -2.1620    3.6840 h1        1 MOL      0.122387
     69 N8         -3.4660   -3.4640    1.5240 n         1 MOL     -0.137053
     70 C22        -2.4320   -4.2590    0.8910 c3        1 MOL     -0.091886
     71 C23        -1.1920   -3.3410    0.6300 c         1 MOL      0.470845
     72 O13        -1.1560   -2.4370   -0.2350 o         1 MOL     -0.437913
     73 C24        -2.9160   -4.7470   -0.5280 c3        1 MOL      0.470368
     74 C25        -1.9580   -5.7560   -1.0920 c3        1 MOL     -0.381546
     75 O14        -4.0920   -5.4780   -0.4000 oh        1 MOL     -0.594879
     76 H29        -3.5570   -2.5600    1.0820 hn        1 MOL      0.106906
     77 H30        -2.1600   -5.1510    1.4670 h1        1 MOL      0.077611
     78 H31        -3.0880   -3.9330   -1.2370 h1        1 MOL     -0.005212
     79 H32        -4.3080   -5.9660   -1.1950 ho        1 MOL      0.367690
     80 H33        -2.1990   -6.2170   -2.0430 hc        1 MOL      0.079132
     81 H34        -0.9520   -5.3380   -1.1470 hc        1 MOL      0.079132
     82 H35        -2.0450   -6.6710   -0.4950 hc        1 MOL      0.079132
     83 N9         -0.2430   -3.4590    1.5480 n         1 MOL     -0.539582
     84 C26         0.9330   -2.6610    1.7270 c3        1 MOL     -0.037943
     85 C27         2.0410   -2.9590    0.6760 c         1 MOL      0.617289
     86 O15         2.6460   -4.0150    0.5730 o         1 MOL     -0.618789
     87 C28         1.3930   -2.6700    3.1490 c3        1 MOL      0.022201
     88 C29         0.3260   -2.3870    4.0980 c3        1 MOL     -0.162614
     89 C30         2.5850   -1.7660    3.4270 c3        1 MOL     -0.153246
     90 C31        -0.3970   -1.0920    3.9530 c3        1 MOL      0.063778
     91 H36        -0.3030   -4.1050    2.3280 hn        1 MOL      0.336285
     92 H37         0.6400   -1.6270    1.5630 h1        1 MOL      0.415239
     93 H38         1.6870   -3.6990    3.3580 hc        1 MOL      0.002228
     94 H39         0.7070   -2.4250    5.1240 hc        1 MOL      0.035621
     95 H40        -0.3480   -3.2470    4.0260 hc        1 MOL      0.035621
     96 H41         2.3470   -0.7390    3.1540 hc        1 MOL      0.032619
     97 H42         2.8560   -1.7750    4.4850 hc        1 MOL      0.032619
     98 H43         3.4820   -1.9810    2.8400 hc        1 MOL      0.032619
     99 H44        -1.0660   -0.8060    4.7650 hc        1 MOL     -0.021493
    100 H45         0.2840   -0.2580    3.7840 hc        1 MOL     -0.021493
    101 H46        -0.9840   -1.1660    3.0440 hc        1 MOL     -0.021493
    102 N10         2.1930   -2.0020   -0.2250 n         1 MOL      0.112061
    103 C32         3.2540   -2.0820   -1.2930 c3        1 MOL     -0.000818
    104 C33         4.5970   -1.7060   -0.7330 c         1 MOL      0.420611
    105 O16         4.6990   -1.1140    0.3270 o         1 MOL     -0.396286
    106 C34         2.8220   -1.1950   -2.4630 c3        1 MOL     -0.215311
    107 C35         1.4460   -1.5480   -3.0110 c         1 MOL      0.733723
    108 O17         0.5160   -0.7150   -2.9000 o         1 MOL     -0.702024
    109 O18         1.3180   -2.5890   -3.6820 o         1 MOL     -0.702024
    110 H47         1.5910   -1.2060   -0.0950 hn        1 MOL     -0.536620
    111 H48         3.3150   -3.1230   -1.5990 h1        1 MOL      0.062791
    112 H49         3.6750   -1.1270   -3.1420 hc        1 MOL      0.080222
    113 H50         2.7640   -0.1670   -2.0960 hc        1 MOL      0.080222
    114 N11         5.6190   -1.9130   -1.5500 n         1 MOL     -0.568955
    115 C36         6.9310   -1.5530   -0.9700 c3        1 MOL      0.357598
    116 C37         7.0730   -0.0590   -0.6240 c         1 MOL      0.301478
    117 O19         7.5620    0.2360    0.4720 o         1 MOL     -0.480851
    118 C38         8.1020   -1.9790   -1.8350 c3        1 MOL     -0.278192
    119 C39         9.4870   -1.5180   -1.2740 ca        1 MOL      0.176320
    120 C40         9.9350   -2.0120   -0.0440 ca        1 MOL     -0.249772
    121 C41        10.2780   -0.6850   -2.0500 ca        1 MOL     -0.249772
    122 C42        11.1480   -1.6270    0.5040 ca        1 MOL      0.006209
    123 C43        11.5230   -0.3080   -1.5510 ca        1 MOL      0.006209
    124 C44        12.0200   -0.7700   -0.3130 ca        1 MOL     -0.248072
    125 H51         5.5230   -2.5830   -2.3040 hn        1 MOL      0.341571
    126 H52         7.1130   -1.9440    0.0290 h1        1 MOL      0.044395
    127 H53         8.0070   -1.6840   -2.8790 hc        1 MOL      0.075109
    128 H54         8.1290   -3.0670   -1.8650 hc        1 MOL      0.075109
    129 H55         9.2630   -2.7170    0.4420 ha        1 MOL      0.129641
    130 H56        10.0310   -0.3790   -3.0550 ha        1 MOL      0.129641
    131 H57        11.4890   -2.0180    1.4580 ha        1 MOL      0.087460
    132 H58        12.1640    0.3270   -2.1500 ha        1 MOL      0.087460
    133 H59        13.0360   -0.5950   -0.0040 ha        1 MOL      0.130847
    134 N12         6.6220    0.9520   -1.3990 n         1 MOL     -0.100796
    135 C45         6.6440    2.3160   -1.0840 c3        1 MOL      0.135132
    136 C46         5.6900    2.7690    0.0110 c         1 MOL      0.105270
    137 O20         5.9020    3.8580    0.5750 o         1 MOL     -0.489507
    138 C47         6.3270    3.0880   -2.3740 c3        1 MOL     -0.184959
    139 C48         6.5030    2.0650   -3.4930 c3        1 MOL     -0.000570
    140 C49         6.1480    0.7530   -2.8450 c3        1 MOL      0.015448
    141 H60         7.6690    2.6340   -0.9110 h1        1 MOL      0.072049
    142 H61         5.2480    3.2780   -2.4240 hc        1 MOL      0.090389
    143 H62         7.0050    3.9220   -2.4800 hc        1 MOL      0.090389
    144 H63         5.8280    2.2420   -4.3310 hc        1 MOL      0.014115
    145 H64         7.5250    1.9990   -3.8940 hc        1 MOL      0.014115
    146 H65         5.0740    0.5290   -2.8400 h1        1 MOL      0.030310
    147 H66         6.5570   -0.1400   -3.2960 h1        1 MOL      0.030310
    148 N13         4.6830    2.0140    0.4090 n         1 MOL      0.068221
    149 C50         3.8400    2.2870    1.5550 c3        1 MOL     -0.070361
    150 C51         4.4530    1.8370    2.8300 c         1 MOL      0.434957
    151 O21         4.2830    2.4450    3.8860 o         1 MOL     -0.555120
    152 C52         2.4690    1.5180    1.2750 c3        1 MOL     -0.072781
    153 C53         1.6480    2.1940    0.2220 c3        1 MOL     -0.116824
    154 C54         0.4340    1.3500   -0.1800 c         1 MOL      0.807672
    155 O22         0.1020    0.3220    0.3780 o         1 MOL     -0.730493
    156 O23        -0.2570    1.8210   -1.1760 o         1 MOL     -0.730493
    157 H67         4.6360    1.1040   -0.0370 hn        1 MOL      0.113086
    158 H68         3.7960    3.3550    1.7460 h1        1 MOL      0.110660
    159 H69         1.7890    1.5830    2.1230 hc        1 MOL      0.078654
    160 H70         2.7030    0.4920    1.0160 hc        1 MOL      0.078654
    161 H71         2.3040    2.2590   -0.6550 hc        1 MOL      0.027144
    162 H72         1.2770    3.1750    0.5260 hc        1 MOL      0.027144
    163 N14         5.2790    0.7740    2.7130 n         1 MOL     -0.033148
    164 C55         6.1760    0.2480    3.7420 c3        1 MOL     -0.274890
    165 H73         7.2060    0.3090    3.3900 h1        1 MOL      0.093966
    166 H74         6.0700    0.8360    4.6540 h1        1 MOL      0.093966
    167 H75         5.9240   -0.7930    3.9480 h1        1 MOL      0.093966
    168 H76         5.4270    0.3360    1.8210 hn        1 MOL      0.106317
    169 Ca1        -1.7260   -0.3240   -1.7360 Ca        1 MOL      1.748299
    170 O24        -2.7650   -2.5490   -3.1860 oh        1 MOL     -1.005073
    171 H77        -3.3990   -2.3220   -3.8730 ho        1 MOL      0.464551
    172 H78        -2.2440   -3.2560   -3.5590 ho        1 MOL      0.464551
@<TRIPOS>BOND
     1    1    2 1   
     2    1    4 1   
     3    1    5 1   
     4    1    6 1   
     5    2    3 2   
     6    2    7 1   
     7    7    8 1   
     8    7   15 1   
     9    8    9 1   
    10    8   11 1   
    11    8   16 1   
    12    9   10 2   
    13    9   19 1   
    14   11   12 1   
    15   11   17 1   
    16   11   18 1   
    17   12   13 1   
    18   12   14 1   
    19   19   20 1   
    20   19   24 1   
    21   20   21 1   
    22   20   23 1   
    23   20   25 1   
    24   21   22 2   
    25   21   29 1   
    26   23   26 1   
    27   23   27 1   
    28   23   28 1   
    29   29   30 1   
    30   29   37 1   
    31   30   31 1   
    32   30   33 1   
    33   30   38 1   
    34   31   32 2   
    35   31   41 1   
    36   33   34 1   
    37   33   39 1   
    38   33   40 1   
    39   34   35 1   
    40   34   36 1   
    41   41   42 1   
    42   41   45 1   
    43   42   43 1   
    44   42   46 1   
    45   42   47 1   
    46   43   44 2   
    47   43   48 1   
    48   48   49 1   
    49   48   56 1   
    50   49   50 1   
    51   49   52 1   
    52   49   57 1   
    53   50   51 2   
    54   50   62 1   
    55   52   53 1   
    56   52   58 1   
    57   52   59 1   
    58   53   54 1   
    59   53   55 2   
    60   54   60 1   
    61   54   61 1   
    62   62   63 1   
    63   62   66 1   
    64   63   64 1   
    65   63   67 1   
    66   63   68 1   
    67   64   65 2   
    68   64   69 1   
    69   69   70 1   
    70   69   76 1   
    71   70   71 1   
    72   70   73 1   
    73   70   77 1   
    74   71   72 2   
    75   71   83 1   
    76   73   74 1   
    77   73   75 1   
    78   73   78 1   
    79   74   80 1   
    80   74   81 1   
    81   74   82 1   
    82   75   79 1   
    83   83   84 1   
    84   83   91 1   
    85   84   85 1   
    86   84   87 1   
    87   84   92 1   
    88   85   86 2   
    89   85  102 1   
    90   87   88 1   
    91   87   89 1   
    92   87   93 1   
    93   88   90 1   
    94   88   94 1   
    95   88   95 1   
    96   89   96 1   
    97   89   97 1   
    98   89   98 1   
    99   90   99 1   
   100   90  100 1   
   101   90  101 1   
   102  102  103 1   
   103  102  110 1   
   104  103  104 1   
   105  103  106 1   
   106  103  111 1   
   107  104  105 2   
   108  104  114 1   
   109  106  107 1   
   110  106  112 1   
   111  106  113 1   
   112  107  108 1   
   113  107  109 1   
   114  114  115 1   
   115  114  125 1   
   116  115  116 1   
   117  115  118 1   
   118  115  126 1   
   119  116  117 2   
   120  116  134 1   
   121  118  119 1   
   122  118  127 1   
   123  118  128 1   
   124  119  120 ar  
   125  119  121 ar  
   126  120  122 ar  
   127  120  129 1   
   128  121  123 ar  
   129  121  130 1   
   130  122  124 ar  
   131  122  131 1   
   132  123  124 ar  
   133  123  132 1   
   134  124  133 1   
   135  134  135 1   
   136  134  140 1   
   137  135  136 1   
   138  135  138 1   
   139  135  141 1   
   140  136  137 2   
   141  136  148 1   
   142  138  139 1   
   143  138  142 1   
   144  138  143 1   
   145  139  140 1   
   146  139  144 1   
   147  139  145 1   
   148  140  146 1   
   149  140  147 1   
   150  148  149 1   
   151  148  157 1   
   152  149  150 1   
   153  149  152 1   
   154  149  158 1   
   155  150  151 2   
   156  150  163 1   
   157  152  153 1   
   158  152  159 1   
   159  152  160 1   
   160  153  154 1   
   161  153  161 1   
   162  153  162 1   
   163  154  155 1   
   164  154  156 1   
   165  163  164 1   
   166  163  168 1   
   167  164  165 1   
   168  164  166 1   
   169  164  167 1   
   170  170  171 1   
   171  170  172 1   
@<TRIPOS>SUBSTRUCTURE
     1 MOL         1 TEMP              0 ****  ****    0 ROOT
