@<TRIPOS>MOLECULE
MOL
  183   181     1     0     0
SMALL
resp


@<TRIPOS>ATOM
      1 C1         -0.9290    2.2060    6.4240 c3        1 MOL     -0.300038
      2 C2         -1.2000    1.9510    4.9440 c         1 MOL      0.775114
      3 O1         -0.5340    2.6260    4.1330 o         1 MOL     -0.621841
      4 H1         -0.3920    1.3570    6.8460 hc        1 MOL      0.071497
      5 H2         -0.3260    3.1080    6.5330 hc        1 MOL      0.071497
      6 H3         -1.8750    2.3350    6.9500 hc        1 MOL      0.071497
      7 N1         -2.2140    1.1770    4.4530 n         1 MOL     -0.712602
      8 C3         -2.6730    1.1510    3.0330 c3        1 MOL      0.310795
      9 C4         -3.1560    2.5250    2.4740 c         1 MOL      0.523577
     10 O2         -4.1950    3.1130    2.9180 o         1 MOL     -0.590256
     11 C5         -3.7300    0.0270    2.9640 c3        1 MOL     -0.336605
     12 C6         -4.3210   -0.1210    1.5770 c         1 MOL      0.742808
     13 O3         -5.3450   -0.8290    1.4750 o         1 MOL     -0.637619
     14 O4         -3.8640    0.5040    0.5990 o         1 MOL     -0.637619
     15 H4         -2.6990    0.6130    5.1350 hn        1 MOL      0.319438
     16 H5         -1.8230    0.8670    2.4180 h1        1 MOL      0.000575
     17 H6         -4.5470    0.2650    3.6600 hc        1 MOL      0.077185
     18 H7         -3.2720   -0.9210    3.2620 hc        1 MOL      0.077185
     19 N2         -2.4070    3.2120    1.6020 n         1 MOL     -0.175043
     20 C7         -2.5480    4.6660    1.2970 c3        1 MOL     -0.209684
     21 C8         -3.7700    4.9560    0.3690 c         1 MOL      0.657682
     22 O5         -4.3080    6.0830    0.4270 o         1 MOL     -0.602348
     23 C9         -1.1780    5.1340    0.6860 c3        1 MOL      0.181946
     24 C10        -0.1000    5.1330    1.8060 c3        1 MOL      0.049553
     25 C11        -1.2050    6.5800    0.1550 c3        1 MOL     -0.222474
     26 C12         1.2510    5.5390    1.4630 c3        1 MOL     -0.097412
     27 H8         -1.7130    2.7370    1.0400 hn        1 MOL      0.086128
     28 H9         -2.7940    5.2730    2.1600 h1        1 MOL      0.091261
     29 H10        -0.9290    4.4370   -0.1170 hc        1 MOL      0.033124
     30 H11         0.0360    4.1440    2.2470 hc        1 MOL      0.025305
     31 H12        -0.4190    5.6880    2.6850 hc        1 MOL      0.025305
     32 H13        -0.4720    6.7150   -0.6400 hc        1 MOL      0.044064
     33 H14        -2.1300    6.7870   -0.3770 hc        1 MOL      0.044064
     34 H15        -1.1510    7.3320    0.9370 hc        1 MOL      0.044064
     35 H16         1.8830    5.4500    2.3380 hc        1 MOL      0.005167
     36 H17         1.6370    4.9410    0.6310 hc        1 MOL      0.005167
     37 H18         1.2280    6.6170    1.2750 hc        1 MOL      0.005167
     38 N3         -4.2160    3.9260   -0.3830 n         1 MOL     -0.572199
     39 C13        -5.2730    4.0610   -1.4090 c3        1 MOL      0.221313
     40 C14        -6.5580    3.1100   -1.2410 c         1 MOL      0.324619
     41 O6         -7.5470    3.3660   -1.9800 o         1 MOL     -0.507370
     42 C15        -4.5560    4.0210   -2.7280 c3        1 MOL     -0.199213
     43 C16        -3.7860    2.7500   -3.0310 c         1 MOL      0.864511
     44 O7         -2.9270    2.8480   -3.9220 o         1 MOL     -0.753454
     45 O8         -3.9890    1.6960   -2.4800 o         1 MOL     -0.753454
     46 H19        -3.7810    3.0330   -0.2320 hn        1 MOL      0.325883
     47 H20        -5.6820    5.0630   -1.4250 h1        1 MOL      0.039739
     48 H21        -3.8630    4.8420   -2.9230 hc        1 MOL      0.030970
     49 H22        -5.3780    4.1040   -3.4460 hc        1 MOL      0.030970
     50 N4         -6.4200    2.0750   -0.3710 n         1 MOL     -0.126292
     51 C17        -7.4840    1.4910    0.2350 c3        1 MOL     -0.071751
     52 C18        -8.0830    0.2430   -0.3600 c         1 MOL      0.446435
     53 O9         -9.3070    0.1430   -0.4150 o         1 MOL     -0.582569
     54 H23        -5.5480    2.0420    0.1500 hn        1 MOL      0.157652
     55 H24        -8.2690    2.1700    0.5810 h1        1 MOL      0.063373
     56 H25        -7.0440    1.1840    1.1890 h1        1 MOL      0.063373
     57 N5         -7.2100   -0.6770   -0.8270 n         1 MOL     -0.137929
     58 C19        -7.5230   -1.9860   -1.4540 c3        1 MOL      0.086617
     59 C20        -7.4260   -3.1090   -0.4690 c         1 MOL      0.358843
     60 O10        -8.0130   -4.1600   -0.6900 o         1 MOL     -0.592832
     61 C21        -6.5940   -2.2110   -2.6790 c3        1 MOL     -0.138254
     62 C22        -5.1360   -1.8850   -2.5980 c         1 MOL      0.696502
     63 O11        -4.4330   -1.2990   -3.4300 o         1 MOL     -0.715012
     64 O12        -4.5970   -1.9990   -1.4620 o         1 MOL     -0.715012
     65 H26        -6.2180   -0.5420   -0.6970 hn        1 MOL      0.067601
     66 H27        -8.5550   -2.0320   -1.8280 h1        1 MOL      0.068564
     67 H28        -7.0670   -1.6400   -3.4860 hc        1 MOL      0.027720
     68 H29        -6.6290   -3.2440   -3.0180 hc        1 MOL      0.027720
     69 N6         -6.8150   -2.9570    0.6520 n         1 MOL     -0.063455
     70 C23        -6.5620   -4.0710    1.6080 c3        1 MOL     -0.082659
     71 C24        -5.1930   -4.7230    1.4040 c         1 MOL      0.567501
     72 O13        -5.0790   -5.8580    1.9410 o         1 MOL     -0.593422
     73 H30        -6.4260   -2.0350    0.7720 hn        1 MOL      0.075278
     74 H31        -7.4140   -4.7500    1.5250 h1        1 MOL      0.056300
     75 H32        -6.5380   -3.6400    2.6110 h1        1 MOL      0.056300
     76 N7         -4.2470   -4.0770    0.6730 n         1 MOL     -0.213444
     77 C25        -2.8690   -4.4650    0.6690 c3        1 MOL     -0.082889
     78 C26        -1.9200   -3.3210    0.9320 c         1 MOL      0.724530
     79 O14        -2.1740   -2.1720    0.5180 o         1 MOL     -0.683788
     80 C27        -2.5200   -5.4520   -0.4990 c3        1 MOL     -0.019172
     81 C28        -2.8070   -4.9710   -1.9150 c3        1 MOL     -0.301761
     82 C29        -1.7240   -4.1000   -2.5070 c         1 MOL      0.741924
     83 N8         -0.8300   -4.6940   -3.3210 n         1 MOL     -0.861309
     84 O15        -1.6860   -2.8500   -2.3710 o         1 MOL     -0.625299
     85 H33        -4.5020   -3.1430    0.4030 hn        1 MOL      0.194410
     86 H34        -2.8220   -5.1940    1.4830 h1        1 MOL      0.018449
     87 H35        -3.1550   -6.3320   -0.3910 hc        1 MOL      0.033494
     88 H36        -1.4750   -5.7220   -0.3580 hc        1 MOL      0.033494
     89 H37        -3.7250   -4.3830   -1.8820 hc        1 MOL      0.106542
     90 H38        -2.9480   -5.8300   -2.5730 hc        1 MOL      0.106542
     91 H39        -0.8120   -5.6870   -3.4650 hn        1 MOL      0.378052
     92 H40        -0.2480   -4.0410   -3.8360 hn        1 MOL      0.378052
     93 N9         -0.8280   -3.5720    1.6170 n         1 MOL     -0.543294
     94 C30         0.3700   -2.7930    1.7110 c3        1 MOL      0.041029
     95 C31         1.4380   -3.3810    0.8010 c         1 MOL      0.496686
     96 O16         1.9200   -4.5000    1.1060 o         1 MOL     -0.602929
     97 C32         0.9030   -2.7410    3.1820 c3        1 MOL      0.295459
     98 C33         2.3370   -2.2790    3.2670 c3        1 MOL     -0.269595
     99 C34         0.0100   -1.8440    3.9510 c3        1 MOL     -0.269595
    100 H41        -0.7300   -4.5540    1.8460 hn        1 MOL      0.286049
    101 H42         0.1480   -1.8040    1.3110 h1        1 MOL      0.196881
    102 H43         0.8100   -3.7050    3.6820 hc        1 MOL     -0.035292
    103 H44         2.6120   -2.0870    4.3080 hc        1 MOL      0.044853
    104 H45         3.0980   -2.9600    2.8840 hc        1 MOL      0.044853
    105 H46         2.4050   -1.3340    2.7290 hc        1 MOL      0.044853
    106 H47         0.3420   -1.9590    4.9840 hc        1 MOL      0.044853
    107 H48         0.1340   -0.8350    3.5560 hc        1 MOL      0.044853
    108 H49        -1.0370   -2.1380    3.8360 hc        1 MOL      0.044853
    109 N10         1.8540   -2.5960   -0.1420 n         1 MOL     -0.226223
    110 C35         3.0370   -2.8860   -0.9520 c3        1 MOL      0.049514
    111 C36         4.2820   -2.2960   -0.3060 c         1 MOL      0.324293
    112 O17         4.1640   -1.5730    0.6840 o         1 MOL     -0.208361
    113 C37         2.9090   -2.6320   -2.4320 c3        1 MOL     -0.353095
    114 C38         3.1330   -1.1730   -2.8530 c         1 MOL      0.681748
    115 N11         2.2810   -0.2290   -2.4610 n         1 MOL     -0.759393
    116 O18         4.2280   -0.8910   -3.3890 o         1 MOL     -0.613474
    117 H50         1.5110   -1.6490   -0.1030 hn        1 MOL      0.074997
    118 H51         3.1900   -3.9710   -0.8670 h1        1 MOL      0.076697
    119 H52         1.9100   -2.8440   -2.8020 hc        1 MOL      0.118606
    120 H53         3.5570   -3.1740   -3.1100 hc        1 MOL      0.118606
    121 H54         1.5010   -0.4080   -1.8570 hn        1 MOL      0.392824
    122 H55         2.4580    0.7350   -2.7130 hn        1 MOL      0.392824
    123 N12         5.4430   -2.5690   -0.9250 n         1 MOL     -0.478969
    124 C39         6.7030   -1.9960   -0.3390 c3        1 MOL      0.208485
    125 C40         6.6470   -0.4980   -0.2320 c         1 MOL      0.718601
    126 O19         7.0880    0.0510    0.8030 o         1 MOL     -0.575125
    127 C41         7.9280   -2.4470   -1.1090 c3        1 MOL     -0.219407
    128 C42         9.2650   -2.0610   -0.5370 ca        1 MOL     -0.004053
    129 C43         9.6830   -2.5860    0.7050 ca        1 MOL     -0.120147
    130 C44        10.1490   -1.1560   -1.2170 ca        1 MOL     -0.120147
    131 C45        10.9240   -2.2540    1.2560 ca        1 MOL     -0.282844
    132 C46        11.3560   -0.8650   -0.7010 ca        1 MOL     -0.282844
    133 C47        11.7610   -1.4200    0.5590 ca        1 MOL      0.403374
    134 O20        13.0310   -1.1710    1.1090 oh        1 MOL     -0.588891
    135 H56         5.4010   -3.0620   -1.8050 hn        1 MOL      0.290639
    136 H57         6.7100   -2.3590    0.6860 h1        1 MOL      0.018559
    137 H58         7.9030   -2.0030   -2.1060 hc        1 MOL      0.080405
    138 H59         7.8270   -3.5310   -1.1920 hc        1 MOL      0.080405
    139 H60         9.0130   -3.1660    1.3190 ha        1 MOL      0.136252
    140 H61         9.8540   -0.7750   -2.1830 ha        1 MOL      0.136252
    141 H62        11.1330   -2.5480    2.2770 ha        1 MOL      0.149654
    142 H63        12.0140   -0.1790   -1.2190 ha        1 MOL      0.149654
    143 H64        13.6390   -0.5760    0.6710 ho        1 MOL      0.398363
    144 N13         6.0580    0.2190   -1.2180 n         1 MOL     -0.529712
    145 C48         6.1380    1.6650   -1.1370 c3        1 MOL     -0.083322
    146 C49         5.3150    2.1650    0.0830 c         1 MOL      0.361502
    147 O21         5.5620    3.2780    0.5450 o         1 MOL     -0.483133
    148 C50         5.6690    2.1630   -2.5820 c3        1 MOL      0.037424
    149 C51         5.7620    3.7000   -2.6200 c3        1 MOL     -0.291363
    150 C52         6.0390    4.0930   -4.0250 c         1 MOL      0.718784
    151 O22         5.1290    4.2230   -4.8420 o         1 MOL     -0.753671
    152 O23         7.2290    4.0820   -4.4290 o         1 MOL     -0.753671
    153 H65         5.7220   -0.2490   -2.0450 hn        1 MOL      0.260045
    154 H66         7.1960    1.9110   -1.0380 h1        1 MOL      0.130782
    155 H67         4.6070    1.9590   -2.7210 hc        1 MOL      0.071680
    156 H68         6.3340    1.7750   -3.3600 hc        1 MOL      0.071680
    157 H69         6.6120    3.9720   -1.9910 hc        1 MOL      0.041348
    158 H70         4.8480    4.2050   -2.2910 hc        1 MOL      0.041348
    159 N14         4.2630    1.3950    0.4050 n         1 MOL     -0.095421
    160 C53         3.3860    1.7860    1.4390 c3        1 MOL     -0.019728
    161 C54         3.9120    1.3620    2.7920 c         1 MOL      0.352896
    162 O24         3.6720    2.0850    3.7830 o         1 MOL     -0.542890
    163 C55         1.9470    1.2990    1.1420 c3        1 MOL      0.113560
    164 C56         1.1760    1.9010   -0.0500 c3        1 MOL      0.142942
    165 C57        -0.0520    1.0960   -0.4310 c         1 MOL      0.627298
    166 O25        -1.1280    1.6610   -0.7330 o         1 MOL     -0.715483
    167 O26         0.0020   -0.1720   -0.4730 o         1 MOL     -0.715483
    168 H71         4.1120    0.5120   -0.0690 hn        1 MOL      0.121077
    169 H72         3.3000    2.8720    1.4810 h1        1 MOL      0.078159
    170 H73         1.2800    1.4700    1.9800 hc        1 MOL     -0.011230
    171 H74         1.9490    0.2270    0.9520 hc        1 MOL     -0.011230
    172 H75         1.8220    1.9770   -0.9220 hc        1 MOL     -0.050014
    173 H76         0.8890    2.9010    0.2590 hc        1 MOL     -0.050014
    174 N15         4.7670    0.3070    2.8230 n         1 MOL      0.130643
    175 C58         5.5270   -0.0280    4.0160 c3        1 MOL     -0.305090
    176 H77         6.4170    0.6000    4.0670 h1        1 MOL      0.094184
    177 H78         4.9120    0.1430    4.9000 h1        1 MOL      0.094184
    178 H79         5.8240   -1.0760    3.9760 h1        1 MOL      0.094184
    179 H80         4.8590   -0.1990    1.9510 hn        1 MOL     -0.082173
    180 Ca1        -2.6250   -0.3820   -1.4710 Ca        1 MOL      1.781010
    181 O27        -1.3790    0.5840   -3.5680 oh        1 MOL     -0.918007
    182 H81        -0.7580    0.5630   -4.2940 ho        1 MOL      0.419124
    183 H82        -1.9600    1.3190   -3.7590 ho        1 MOL      0.419124
@<TRIPOS>BOND
     1    1    2 1   
     2    1    4 1   
     3    1    5 1   
     4    1    6 1   
     5    2    3 2   
     6    2    7 1   
     7    7    8 1   
     8    7   15 1   
     9    8    9 1   
    10    8   11 1   
    11    8   16 1   
    12    9   10 2   
    13    9   19 1   
    14   11   12 1   
    15   11   17 1   
    16   11   18 1   
    17   12   13 1   
    18   12   14 1   
    19   19   20 1   
    20   19   27 1   
    21   20   21 1   
    22   20   23 1   
    23   20   28 1   
    24   21   22 2   
    25   21   38 1   
    26   23   24 1   
    27   23   25 1   
    28   23   29 1   
    29   24   26 1   
    30   24   30 1   
    31   24   31 1   
    32   25   32 1   
    33   25   33 1   
    34   25   34 1   
    35   26   35 1   
    36   26   36 1   
    37   26   37 1   
    38   38   39 1   
    39   38   46 1   
    40   39   40 1   
    41   39   42 1   
    42   39   47 1   
    43   40   41 2   
    44   40   50 1   
    45   42   43 1   
    46   42   48 1   
    47   42   49 1   
    48   43   44 1   
    49   43   45 1   
    50   50   51 1   
    51   50   54 1   
    52   51   52 1   
    53   51   55 1   
    54   51   56 1   
    55   52   53 2   
    56   52   57 1   
    57   57   58 1   
    58   57   65 1   
    59   58   59 1   
    60   58   61 1   
    61   58   66 1   
    62   59   60 2   
    63   59   69 1   
    64   61   62 1   
    65   61   67 1   
    66   61   68 1   
    67   62   63 1   
    68   62   64 1   
    69   69   70 1   
    70   69   73 1   
    71   70   71 1   
    72   70   74 1   
    73   70   75 1   
    74   71   72 2   
    75   71   76 1   
    76   76   77 1   
    77   76   85 1   
    78   77   78 1   
    79   77   80 1   
    80   77   86 1   
    81   78   79 2   
    82   78   93 1   
    83   80   81 1   
    84   80   87 1   
    85   80   88 1   
    86   81   82 1   
    87   81   89 1   
    88   81   90 1   
    89   82   83 1   
    90   82   84 2   
    91   83   91 1   
    92   83   92 1   
    93   93   94 1   
    94   93  100 1   
    95   94   95 1   
    96   94   97 1   
    97   94  101 1   
    98   95   96 2   
    99   95  109 1   
   100   97   98 1   
   101   97   99 1   
   102   97  102 1   
   103   98  103 1   
   104   98  104 1   
   105   98  105 1   
   106   99  106 1   
   107   99  107 1   
   108   99  108 1   
   109  109  110 1   
   110  109  117 1   
   111  110  111 1   
   112  110  113 1   
   113  110  118 1   
   114  111  112 2   
   115  111  123 1   
   116  113  114 1   
   117  113  119 1   
   118  113  120 1   
   119  114  115 1   
   120  114  116 2   
   121  115  121 1   
   122  115  122 1   
   123  123  124 1   
   124  123  135 1   
   125  124  125 1   
   126  124  127 1   
   127  124  136 1   
   128  125  126 2   
   129  125  144 1   
   130  127  128 1   
   131  127  137 1   
   132  127  138 1   
   133  128  129 ar  
   134  128  130 ar  
   135  129  131 ar  
   136  129  139 1   
   137  130  132 ar  
   138  130  140 1   
   139  131  133 ar  
   140  131  141 1   
   141  132  133 ar  
   142  132  142 1   
   143  133  134 1   
   144  134  143 1   
   145  144  145 1   
   146  144  153 1   
   147  145  146 1   
   148  145  148 1   
   149  145  154 1   
   150  146  147 2   
   151  146  159 1   
   152  148  149 1   
   153  148  155 1   
   154  148  156 1   
   155  149  150 1   
   156  149  157 1   
   157  149  158 1   
   158  150  151 1   
   159  150  152 1   
   160  159  160 1   
   161  159  168 1   
   162  160  161 1   
   163  160  163 1   
   164  160  169 1   
   165  161  162 2   
   166  161  174 1   
   167  163  164 1   
   168  163  170 1   
   169  163  171 1   
   170  164  165 1   
   171  164  172 1   
   172  164  173 1   
   173  165  166 1   
   174  165  167 1   
   175  174  175 1   
   176  174  179 1   
   177  175  176 1   
   178  175  177 1   
   179  175  178 1   
   180  181  182 1   
   181  181  183 1   
@<TRIPOS>SUBSTRUCTURE
     1 MOL         1 TEMP              0 ****  ****    0 ROOT
