@<TRIPOS>MOLECULE
MOL
  179   176     1     0     0
SMALL
resp


@<TRIPOS>ATOM
      1 C1         -1.6040   -2.9660    5.7200 c3        1 MOL     -0.385321
      2 C2         -1.0230   -2.8300    4.2910 c         1 MOL      0.747424
      3 O1         -1.7870   -2.9140    3.3190 o         1 MOL     -0.618397
      4 H1         -2.6640   -2.7160    5.7060 hc        1 MOL      0.098412
      5 H2         -1.4780   -3.9920    6.0680 hc        1 MOL      0.098412
      6 H3         -1.0790   -2.2880    6.3920 hc        1 MOL      0.098412
      7 N1          0.2430   -2.4360    4.1490 n         1 MOL     -0.635284
      8 C3          0.8890   -2.3710    2.8720 c3        1 MOL      0.115878
      9 C4          1.2250   -3.8130    2.3050 c         1 MOL      0.460075
     10 O2          1.7580   -4.6640    3.0140 o         1 MOL     -0.530222
     11 C5          2.2100   -1.6660    3.1360 c3        1 MOL     -0.250904
     12 C6          3.0300   -1.3250    1.8470 c         1 MOL      0.878075
     13 O3          2.6510   -1.7110    0.7460 o         1 MOL     -0.787693
     14 O4          4.0960   -0.6420    1.9640 o         1 MOL     -0.787693
     15 H4          0.7760   -2.4570    5.0100 hn        1 MOL      0.344974
     16 H5          0.2780   -1.8100    2.1710 h1        1 MOL     -0.025438
     17 H6          2.8580   -2.3620    3.6490 hc        1 MOL      0.069290
     18 H7          2.0510   -0.7580    3.7280 hc        1 MOL      0.069290
     19 N2          0.9050   -4.0060    0.9860 n         1 MOL     -0.054567
     20 C7          1.0510   -5.3350    0.3460 c3        1 MOL     -0.393591
     21 C8          2.3490   -5.5950   -0.3760 c         1 MOL      0.734452
     22 O5          2.6830   -6.7420   -0.6050 o         1 MOL     -0.600620
     23 C9         -0.0760   -5.5480   -0.6990 c3        1 MOL      0.089113
     24 C10        -1.5410   -5.5440   -0.1580 c3        1 MOL      0.090050
     25 C11        -2.5320   -5.9470   -1.1740 c3        1 MOL     -0.222541
     26 C12        -3.8190   -6.3450   -0.5130 c3        1 MOL      0.297667
     27 N3         -4.8630   -6.8350   -1.4460 n4        1 MOL     -0.519704
     28 H8          0.4660   -3.2650    0.4560 hn        1 MOL      0.153582
     29 H9          1.0610   -6.1110    1.1130 h1        1 MOL      0.142815
     30 H10         0.1480   -6.5050   -1.1850 hc        1 MOL      0.003066
     31 H11        -0.0220   -4.8460   -1.5340 hc        1 MOL      0.003066
     32 H12        -1.7160   -4.5360    0.2180 hc        1 MOL      0.011288
     33 H13        -1.5560   -6.2020    0.7120 hc        1 MOL      0.011288
     34 H14        -2.1030   -6.7970   -1.7010 hc        1 MOL      0.042512
     35 H15        -2.7370   -5.0750   -1.7980 hc        1 MOL      0.042512
     36 H16        -4.1750   -5.4910    0.0680 hx        1 MOL      0.021398
     37 H17        -3.5900   -7.1110    0.2310 hx        1 MOL      0.021398
     38 H18        -4.3890   -7.5320   -2.0020 hn        1 MOL      0.361629
     39 H19        -5.5860   -7.3860   -1.0050 hn        1 MOL      0.361629
     40 H20        -5.2110   -6.0180   -1.9340 hn        1 MOL      0.361629
     41 N4          3.1460   -4.5820   -0.6630 n         1 MOL     -0.440312
     42 C13         4.3500   -4.7580   -1.5870 c3        1 MOL     -0.090078
     43 C14         5.6060   -4.0840   -0.9920 c         1 MOL      0.600007
     44 O6          6.6720   -4.3020   -1.5120 o         1 MOL     -0.565119
     45 C15         4.0840   -4.0810   -2.9660 c3        1 MOL     -0.086290
     46 C16         3.6080   -2.6290   -2.9640 c         1 MOL      0.666543
     47 O7          3.3870   -2.0680   -4.0640 o         1 MOL     -0.703271
     48 O8          3.3970   -2.0320   -1.8530 o         1 MOL     -0.703271
     49 H21         2.8420   -3.6360   -0.5120 hn        1 MOL      0.214656
     50 H22         4.5480   -5.7780   -1.9050 h1        1 MOL      0.134787
     51 H23         3.3700   -4.6290   -3.5810 hc        1 MOL      0.048298
     52 H24         4.9670   -3.9820   -3.6100 hc        1 MOL      0.048298
     53 N5          5.5390   -3.5190    0.2130 n         1 MOL     -0.427439
     54 C17         6.7010   -2.8810    0.7880 c3        1 MOL     -0.004939
     55 C18         7.0560   -1.5180    0.2870 c         1 MOL      0.486704
     56 O9          8.0390   -0.9730    0.7570 o         1 MOL     -0.566077
     57 H25         4.6540   -3.4460    0.6850 hn        1 MOL      0.301238
     58 H26         7.5550   -3.5510    0.7620 h1        1 MOL      0.082277
     59 H27         6.6220   -2.7750    1.8640 h1        1 MOL      0.082277
     60 N6          6.2680   -0.9310   -0.6550 n         1 MOL     -0.252707
     61 C19         6.7920    0.3120   -1.3390 c3        1 MOL     -0.007229
     62 C20         6.5960    1.5040   -0.3140 c         1 MOL      0.348062
     63 O10         7.0950    2.5830   -0.6800 o         1 MOL     -0.492741
     64 C21         5.9330    0.3910   -2.5710 c3        1 MOL     -0.221391
     65 C22         4.6130    1.1770   -2.4200 c         1 MOL      0.577469
     66 N7          4.3760    2.2330   -3.1290 n         1 MOL     -0.682637
     67 O11         3.8410    0.8790   -1.5300 o         1 MOL     -0.536225
     68 H28         5.3850   -1.3440   -0.9160 hn        1 MOL      0.168270
     69 H29         7.8390    0.2430   -1.6250 h1        1 MOL      0.129543
     70 H30         5.7150   -0.5810   -3.0230 hc        1 MOL      0.100602
     71 H31         6.4210    0.9240   -3.3900 hc        1 MOL      0.100602
     72 H32         5.0340    2.6180   -3.7830 hn        1 MOL      0.339539
     73 H33         3.4700    2.6950   -3.1130 hn        1 MOL      0.339539
     74 N8          5.9140    1.3650    0.8720 n         1 MOL     -0.100919
     75 C23         5.7930    2.4190    1.9500 c3        1 MOL     -0.360470
     76 C24         4.4530    3.1130    2.0540 c         1 MOL      0.607069
     77 O12         4.3320    3.8870    3.0110 o         1 MOL     -0.585713
     78 H34         5.4710    0.4700    1.0190 hn        1 MOL      0.281571
     79 H35         6.4180    3.2850    1.7230 h1        1 MOL      0.157714
     80 H36         6.0720    2.0290    2.9240 h1        1 MOL      0.157714
     81 N9          3.5430    2.8130    1.1210 n         1 MOL     -0.135042
     82 C25         2.2420    3.5610    1.0280 c3        1 MOL      0.162598
     83 C26         1.0500    2.5410    0.9610 c         1 MOL      0.200449
     84 O13         1.2270    1.3820    0.6650 o         1 MOL     -0.519640
     85 C27         2.3110    4.3570   -0.2350 c3        1 MOL      0.054594
     86 C28         3.2820    5.5530   -0.3270 ca        1 MOL     -0.046609
     87 C29         4.5960    5.4280   -0.7140 ca        1 MOL     -0.129446
     88 C30         2.7900    6.7710    0.0430 ca        1 MOL     -0.129446
     89 C31         5.4750    6.5330   -0.5950 ca        1 MOL     -0.268122
     90 C32         3.6670    7.8940    0.1380 ca        1 MOL     -0.268122
     91 C33         5.0060    7.8110   -0.1880 ca        1 MOL      0.369056
     92 O14         5.7680    8.8910   -0.2400 oh        1 MOL     -0.454053
     93 H37         3.5830    2.0160    0.4850 hn        1 MOL      0.102693
     94 H38         2.1650    4.2460    1.8720 h1        1 MOL      0.018193
     95 H39         1.3200    4.6680   -0.5590 hc        1 MOL     -0.009193
     96 H40         2.6140    3.6420   -0.9950 hc        1 MOL     -0.009193
     97 H41         4.9930    4.4450   -0.9050 ha        1 MOL      0.108293
     98 H42         1.7380    6.8970    0.2350 ha        1 MOL      0.108293
     99 H43         6.4980    6.4490   -0.9190 ha        1 MOL      0.139145
    100 H44         3.2530    8.8150    0.5250 ha        1 MOL      0.139145
    101 H45         5.2970    9.6830    0.0420 ho        1 MOL      0.340413
    102 N10        -0.1710    2.9830    1.2920 n         1 MOL     -0.131829
    103 C34        -1.4160    2.3390    1.0150 c3        1 MOL     -0.315580
    104 C35        -2.4060    3.3020    0.4360 c         1 MOL      0.572673
    105 O15        -2.4750    4.4710    0.8400 o         1 MOL     -0.546710
    106 C36        -2.0620    1.5490    2.2120 c3        1 MOL     -0.058220
    107 C37        -2.4540    2.6210    3.3180 c3        1 MOL     -0.033303
    108 C38        -1.1280    0.5790    2.8160 c3        1 MOL      0.033418
    109 C39        -3.0220    2.0010    4.5970 c3        1 MOL     -0.242727
    110 H46        -0.2260    3.8810    1.7580 hn        1 MOL      0.236455
    111 H47        -1.3650    1.5550    0.2590 h1        1 MOL      0.271394
    112 H48        -2.9380    0.9790    1.9060 hc        1 MOL      0.069370
    113 H49        -3.2940    3.2120    2.9580 hc        1 MOL      0.059970
    114 H50        -1.6880    3.3300    3.6310 hc        1 MOL      0.059970
    115 H51        -0.3330    1.0990    3.3740 hc        1 MOL      0.041291
    116 H52        -1.5840   -0.0870    3.5480 hc        1 MOL      0.041291
    117 H53        -0.7900   -0.1560    2.0880 hc        1 MOL      0.041291
    118 H54        -2.2090    1.4950    5.1040 hc        1 MOL      0.056321
    119 H55        -3.3390    2.7990    5.2580 hc        1 MOL      0.056321
    120 H56        -3.7860    1.2970    4.2620 hc        1 MOL      0.056321
    121 N11        -3.1350    2.8430   -0.5800 n         1 MOL     -0.339742
    122 C40        -4.3210    3.4750   -1.1150 c3        1 MOL      0.050759
    123 C41        -5.6050    3.1000   -0.3720 c         1 MOL      0.523488
    124 O16        -5.6180    2.2850    0.5550 o         1 MOL     -0.423398
    125 C42        -4.5770    3.0690   -2.5620 c3        1 MOL     -0.083597
    126 O17        -4.9150    1.6660   -2.6160 oh        1 MOL     -0.343393
    127 H57        -3.0880    1.8930   -0.9020 hn        1 MOL      0.192274
    128 H58        -4.3500    4.5630   -0.9890 h1        1 MOL      0.079437
    129 H59        -3.7630    3.3350   -3.2430 h1        1 MOL      0.069008
    130 H60        -5.4430    3.5500   -3.0190 h1        1 MOL      0.069008
    131 H61        -4.8040    1.3660   -3.5270 ho        1 MOL      0.371029
    132 N12        -6.6830    3.7420   -0.7530 n         1 MOL     -0.476712
    133 C43        -8.0690    3.4900   -0.2280 c3        1 MOL      0.211010
    134 C44        -8.6350    2.0150   -0.5880 c         1 MOL      0.380198
    135 O18        -9.3960    1.4300    0.1540 o         1 MOL     -0.466426
    136 C45        -8.9720    4.6240   -0.6040 c3        1 MOL     -0.516270
    137 H62        -6.4910    4.3290   -1.5570 hn        1 MOL      0.286236
    138 H63        -8.0500    3.6000    0.8580 h1        1 MOL      0.093287
    139 H64        -8.8940    4.7910   -1.6760 hc        1 MOL      0.153826
    140 H65        -9.9760    4.2690   -0.3570 hc        1 MOL      0.153826
    141 H66        -8.7790    5.4540    0.0730 hc        1 MOL      0.153826
    142 N13        -8.0810    1.5000   -1.7190 n         1 MOL     -0.298287
    143 C46        -8.3880    0.1290   -2.2860 c3        1 MOL      0.144930
    144 C47        -7.5550   -0.9240   -1.5800 c         1 MOL      0.281737
    145 O19        -8.0600   -2.0360   -1.2990 o         1 MOL     -0.506487
    146 C48        -8.0540    0.2580   -3.7540 c3        1 MOL     -0.184577
    147 H67        -7.3790    2.0180   -2.2190 hn        1 MOL      0.211590
    148 H68        -9.4370   -0.1400   -2.2370 h1        1 MOL      0.102098
    149 H69        -8.6620    1.0790   -4.1150 hc        1 MOL      0.048920
    150 H70        -6.9890    0.4150   -3.9570 hc        1 MOL      0.048920
    151 H71        -8.3610   -0.6030   -4.3480 hc        1 MOL      0.048920
    152 N14        -6.3720   -0.5050   -1.0880 n         1 MOL      0.115209
    153 C49        -5.4300   -1.3160   -0.4190 c3        1 MOL     -0.123361
    154 C50        -5.7650   -1.3960    1.0720 c         1 MOL      0.434054
    155 O20        -5.7360   -2.4820    1.5910 o         1 MOL     -0.552694
    156 C51        -3.9650   -0.8610   -0.7220 c3        1 MOL     -0.042319
    157 C52        -2.9040   -1.9070   -0.3230 c3        1 MOL      0.107239
    158 C53        -1.4700   -1.4990   -0.7020 c         1 MOL      0.607526
    159 O21        -1.2140   -0.4090   -1.1850 o         1 MOL     -0.711046
    160 O22        -0.4480   -2.1950   -0.4700 o         1 MOL     -0.711046
    161 H72        -6.0230    0.4170   -1.2880 hn        1 MOL     -0.182854
    162 H73        -5.5100   -2.3480   -0.7460 h1        1 MOL      0.076414
    163 H74        -3.8430    0.0900   -0.2100 hc        1 MOL     -0.000308
    164 H75        -3.8710   -0.8280   -1.8100 hc        1 MOL     -0.000308
    165 H76        -3.1710   -2.7890   -0.8940 hc        1 MOL      0.017395
    166 H77        -2.9470   -2.1720    0.7340 hc        1 MOL      0.017395
    167 N15        -6.2830   -0.3170    1.6090 n         1 MOL     -0.000094
    168 C54        -6.8640   -0.1370    2.9050 c3        1 MOL     -0.178163
    169 H78        -7.2430   -1.0920    3.2680 h1        1 MOL      0.081681
    170 H79        -6.1070    0.2390    3.5940 h1        1 MOL      0.081681
    171 H80        -7.6840    0.5780    2.8400 h1        1 MOL      0.081681
    172 H81        -6.2010    0.5180    1.0460 hn        1 MOL      0.071033
    173 Ca1         1.4330   -0.5300   -1.2330 Ca        1 MOL      1.774750
    174 O23         1.2570   -0.3940   -3.8600 oh        1 MOL     -0.900366
    175 H82         0.6810   -0.2300   -4.6050 ho        1 MOL      0.424099
    176 H83         2.0340   -0.8070   -4.2500 ho        1 MOL      0.424099
    177 O24         0.6940    1.9250   -2.2340 oh        1 MOL     -0.900366
    178 H84         0.9600    1.9410   -3.1530 ho        1 MOL      0.424099
    179 H85         0.0850    2.6520   -2.1460 ho        1 MOL      0.424099
@<TRIPOS>BOND
     1    1    2 1   
     2    1    4 1   
     3    1    5 1   
     4    1    6 1   
     5    2    3 2   
     6    2    7 1   
     7    7    8 1   
     8    7   15 1   
     9    8    9 1   
    10    8   11 1   
    11    8   16 1   
    12    9   10 2   
    13    9   19 1   
    14   11   12 1   
    15   11   17 1   
    16   11   18 1   
    17   12   13 1   
    18   12   14 1   
    19   19   20 1   
    20   19   28 1   
    21   20   21 1   
    22   20   23 1   
    23   20   29 1   
    24   21   22 2   
    25   21   41 1   
    26   23   24 1   
    27   23   30 1   
    28   23   31 1   
    29   24   25 1   
    30   24   32 1   
    31   24   33 1   
    32   25   26 1   
    33   25   34 1   
    34   25   35 1   
    35   26   27 1   
    36   26   36 1   
    37   26   37 1   
    38   27   38 1   
    39   27   39 1   
    40   27   40 1   
    41   41   42 1   
    42   41   49 1   
    43   42   43 1   
    44   42   45 1   
    45   42   50 1   
    46   43   44 2   
    47   43   53 1   
    48   45   46 1   
    49   45   51 1   
    50   45   52 1   
    51   46   47 1   
    52   46   48 1   
    53   53   54 1   
    54   53   57 1   
    55   54   55 1   
    56   54   58 1   
    57   54   59 1   
    58   55   56 2   
    59   55   60 1   
    60   60   61 1   
    61   60   68 1   
    62   61   62 1   
    63   61   64 1   
    64   61   69 1   
    65   62   63 2   
    66   62   74 1   
    67   64   65 1   
    68   64   70 1   
    69   64   71 1   
    70   65   66 1   
    71   65   67 2   
    72   66   72 1   
    73   66   73 1   
    74   74   75 1   
    75   74   78 1   
    76   75   76 1   
    77   75   79 1   
    78   75   80 1   
    79   76   77 2   
    80   76   81 1   
    81   81   82 1   
    82   81   93 1   
    83   82   83 1   
    84   82   85 1   
    85   82   94 1   
    86   83   84 2   
    87   83  102 1   
    88   85   86 1   
    89   85   95 1   
    90   85   96 1   
    91   86   87 ar  
    92   86   88 ar  
    93   87   89 ar  
    94   87   97 1   
    95   88   90 ar  
    96   88   98 1   
    97   89   91 ar  
    98   89   99 1   
    99   90   91 ar  
   100   90  100 1   
   101   91   92 1   
   102   92  101 1   
   103  102  103 1   
   104  102  110 1   
   105  103  104 1   
   106  103  106 1   
   107  103  111 1   
   108  104  105 2   
   109  104  121 1   
   110  106  107 1   
   111  106  108 1   
   112  106  112 1   
   113  107  109 1   
   114  107  113 1   
   115  107  114 1   
   116  108  115 1   
   117  108  116 1   
   118  108  117 1   
   119  109  118 1   
   120  109  119 1   
   121  109  120 1   
   122  121  122 1   
   123  121  127 1   
   124  122  123 1   
   125  122  125 1   
   126  122  128 1   
   127  123  124 2   
   128  123  132 1   
   129  125  126 1   
   130  125  129 1   
   131  125  130 1   
   132  126  131 1   
   133  132  133 1   
   134  132  137 1   
   135  133  134 1   
   136  133  136 1   
   137  133  138 1   
   138  134  135 2   
   139  134  142 1   
   140  136  139 1   
   141  136  140 1   
   142  136  141 1   
   143  142  143 1   
   144  142  147 1   
   145  143  144 1   
   146  143  146 1   
   147  143  148 1   
   148  144  145 2   
   149  144  152 1   
   150  146  149 1   
   151  146  150 1   
   152  146  151 1   
   153  152  153 1   
   154  152  161 1   
   155  153  154 1   
   156  153  156 1   
   157  153  162 1   
   158  154  155 2   
   159  154  167 1   
   160  156  157 1   
   161  156  163 1   
   162  156  164 1   
   163  157  158 1   
   164  157  165 1   
   165  157  166 1   
   166  158  159 1   
   167  158  160 1   
   168  167  168 1   
   169  167  172 1   
   170  168  169 1   
   171  168  170 1   
   172  168  171 1   
   173  174  175 1   
   174  174  176 1   
   175  177  178 1   
   176  177  179 1   
@<TRIPOS>SUBSTRUCTURE
     1 MOL         1 TEMP              0 ****  ****    0 ROOT
