@<TRIPOS>MOLECULE
MOL
  179   176     1     0     0
SMALL
resp


@<TRIPOS>ATOM
      1 C1          1.7550    2.7990    5.6720 c3        1 MOL     -0.354551
      2 C2          1.1770    2.7630    4.2470 c         1 MOL      0.839611
      3 O1          1.9780    2.8370    3.2730 o         1 MOL     -0.664581
      4 H1          2.8280    2.9860    5.6240 hc        1 MOL      0.087966
      5 H2          1.2740    3.5950    6.2410 hc        1 MOL      0.087966
      6 H3          1.5760    1.8420    6.1620 hc        1 MOL      0.087966
      7 N1         -0.0930    2.5710    4.1470 n         1 MOL     -0.730666
      8 C3         -0.7250    2.3800    2.8390 c3        1 MOL      0.125615
      9 C4         -0.9120    3.7230    2.0980 c         1 MOL      0.582787
     10 O2         -1.5360    4.6840    2.6050 o         1 MOL     -0.550765
     11 C5         -2.0040    1.6470    3.0350 c3        1 MOL     -0.155725
     12 C6         -2.7460    1.3000    1.7230 c         1 MOL      0.841200
     13 O3         -3.9840    0.9380    1.7720 o         1 MOL     -0.827319
     14 O4         -2.1950    1.4720    0.6250 o         1 MOL     -0.827319
     15 H4         -0.6780    2.5300    4.9640 hn        1 MOL      0.363790
     16 H5         -0.0080    1.7340    2.3290 h1        1 MOL      0.066658
     17 H6         -2.5900    2.3100    3.6600 hc        1 MOL      0.039404
     18 H7         -1.8170    0.6740    3.4900 hc        1 MOL      0.039404
     19 N2         -0.6130    3.7450    0.7860 n         1 MOL     -0.375698
     20 C7         -0.6180    5.0250    0.0540 c3        1 MOL     -0.113528
     21 C8         -1.8640    5.3100   -0.7440 c         1 MOL      0.526890
     22 O5         -2.1030    6.4730   -1.0700 o         1 MOL     -0.584899
     23 C9          0.5830    5.0590   -0.9550 c3        1 MOL     -0.094007
     24 C10         1.9760    4.8320   -0.2660 c3        1 MOL     -0.081343
     25 C11         3.1640    5.1420   -1.1350 c3        1 MOL     -0.061831
     26 C12         3.3510    6.5090   -1.7240 c3        1 MOL      0.096727
     27 N3          4.6060    6.4490   -2.5220 n4        1 MOL     -0.504516
     28 H8         -0.4970    2.9290    0.2000 hn        1 MOL      0.388359
     29 H9         -0.4750    5.7230    0.8720 h1        1 MOL      0.113481
     30 H10         0.6020    6.0290   -1.4520 hc        1 MOL      0.053451
     31 H11         0.3570    4.3370   -1.7400 hc        1 MOL      0.053451
     32 H12         2.1300    3.8040    0.0690 hc        1 MOL      0.078781
     33 H13         1.9370    5.5070    0.5890 hc        1 MOL      0.078781
     34 H14         3.2430    4.4050   -1.9340 hc        1 MOL      0.070128
     35 H15         4.1170    5.0300   -0.6160 hc        1 MOL      0.070128
     36 H16         3.4620    7.2540   -0.9290 hx        1 MOL      0.067864
     37 H17         2.5160    6.8040   -2.3610 hx        1 MOL      0.067864
     38 H18         4.7170    5.5940   -3.0570 hn        1 MOL      0.364361
     39 H19         4.5370    7.2020   -3.1970 hn        1 MOL      0.364361
     40 H20         5.3610    6.5760   -1.8740 hn        1 MOL      0.364361
     41 N4         -2.6680    4.3140   -1.0230 n         1 MOL     -0.263005
     42 C13        -3.8300    4.4300   -1.9190 c3        1 MOL      0.013909
     43 C14        -5.1530    3.8940   -1.2710 c         1 MOL      0.525248
     44 O6         -6.1410    3.9240   -1.9420 o         1 MOL     -0.534672
     45 C15        -3.5270    3.5510   -3.1980 c3        1 MOL     -0.182666
     46 C16        -3.1320    2.1660   -2.8130 c         1 MOL      0.871985
     47 O7         -2.2760    1.5310   -3.4670 o         1 MOL     -0.798507
     48 O8         -3.6360    1.6430   -1.7980 o         1 MOL     -0.798507
     49 H21        -2.4570    3.4190   -0.5940 hn        1 MOL      0.141313
     50 H22        -3.9560    5.4410   -2.3040 h1        1 MOL      0.112380
     51 H23        -2.6080    3.9470   -3.6200 hc        1 MOL      0.043208
     52 H24        -4.3780    3.5560   -3.8820 hc        1 MOL      0.043208
     53 N5         -5.2580    3.4360   -0.0130 n         1 MOL     -0.493692
     54 C17        -6.5590    3.1370    0.5840 c3        1 MOL     -0.003956
     55 C18        -7.0200    1.6780    0.3210 c         1 MOL      0.461538
     56 O9         -8.0240    1.2740    0.8910 o         1 MOL     -0.584469
     57 H25        -4.4290    3.2780    0.5440 hn        1 MOL      0.336087
     58 H26        -7.3430    3.8280    0.2660 h1        1 MOL      0.084003
     59 H27        -6.6240    3.1470    1.6690 h1        1 MOL      0.084003
     60 N6         -6.2440    0.8920   -0.4500 n         1 MOL     -0.249763
     61 C19        -6.7170   -0.4030   -0.9090 c3        1 MOL      0.077863
     62 C20        -6.4970   -1.4830    0.0780 c         1 MOL      0.423318
     63 O10        -6.8540   -2.6570   -0.1490 o         1 MOL     -0.524132
     64 C21        -6.0450   -0.7120   -2.2190 c3        1 MOL     -0.446781
     65 C22        -4.6860   -1.4230   -2.0850 c         1 MOL      0.554178
     66 N7         -4.4710   -2.3720   -2.9850 n         1 MOL     -0.517188
     67 O11        -3.8390   -1.2650   -1.2790 o         1 MOL     -0.477351
     68 H28        -5.4070    1.3110   -0.8190 hn        1 MOL      0.282506
     69 H29        -7.7910   -0.3530   -1.0870 h1        1 MOL      0.112349
     70 H30        -5.8750    0.1510   -2.8580 hc        1 MOL      0.142523
     71 H31        -6.6920   -1.3970   -2.7580 hc        1 MOL      0.142523
     72 H32        -5.2140   -2.5810   -3.6290 hn        1 MOL      0.277040
     73 H33        -3.5930   -2.8530   -3.0790 hn        1 MOL      0.277040
     74 N8         -5.9260   -1.1530    1.2670 n         1 MOL     -0.233196
     75 C23        -6.1010   -2.0340    2.4140 c3        1 MOL     -0.254858
     76 C24        -5.0580   -3.2430    2.5240 c         1 MOL      0.480418
     77 O12        -5.1520   -4.1400    3.3730 o         1 MOL     -0.530101
     78 H34        -5.5230   -0.2630    1.5090 hn        1 MOL      0.381844
     79 H35        -7.0820   -2.5030    2.4150 h1        1 MOL      0.127241
     80 H36        -5.9870   -1.3800    3.2790 h1        1 MOL      0.127241
     81 N9         -3.9230   -3.1220    1.7630 n         1 MOL     -0.125777
     82 C25        -2.6460   -3.7370    1.9730 c3        1 MOL     -0.080991
     83 C26        -1.4660   -2.8830    1.5220 c         1 MOL      0.712413
     84 O13        -1.5570   -1.8790    0.8220 o         1 MOL     -0.579464
     85 C27        -2.6490   -5.1130    1.3160 c3        1 MOL     -0.094064
     86 C28        -2.5470   -5.1240   -0.2090 ca        1 MOL     -0.122635
     87 C29        -1.2930   -4.8410   -0.7750 ca        1 MOL      0.021860
     88 C30        -3.7240   -5.2410   -0.9950 ca        1 MOL      0.021860
     89 C31        -1.1600   -4.9270   -2.1910 ca        1 MOL     -0.412765
     90 C32        -3.6500   -5.2180   -2.4070 ca        1 MOL     -0.412765
     91 C33        -2.3490   -5.1260   -3.0000 ca        1 MOL      0.423596
     92 O14        -2.2230   -5.2950   -4.3720 oh        1 MOL     -0.525230
     93 H37        -3.9260   -2.3620    1.0990 hn        1 MOL      0.094050
     94 H38        -2.5410   -4.0070    3.0200 h1        1 MOL      0.068961
     95 H39        -3.5420   -5.6430    1.6600 hc        1 MOL      0.071241
     96 H40        -1.8750   -5.8110    1.6630 hc        1 MOL      0.071241
     97 H41        -0.4670   -4.6540   -0.1040 ha        1 MOL      0.123240
     98 H42        -4.6510   -5.4350   -0.4670 ha        1 MOL      0.123240
     99 H43        -0.2050   -4.6950   -2.6410 ha        1 MOL      0.191446
    100 H44        -4.4910   -5.4040   -3.0590 ha        1 MOL      0.191446
    101 H45        -1.3480   -5.1090   -4.7090 ho        1 MOL      0.351178
    102 N10        -0.3060   -3.1770    2.2180 n         1 MOL     -0.696881
    103 C34         1.0530   -2.5110    2.0420 c3        1 MOL      0.074811
    104 C35         1.8520   -3.3880    1.0520 c         1 MOL      0.308697
    105 O15         1.7990   -4.5950    1.0850 o         1 MOL     -0.496668
    106 C36         1.6680   -2.3760    3.4620 c3        1 MOL      0.114089
    107 C37         0.8380   -1.8220    4.5840 c3        1 MOL     -0.024125
    108 C38         2.9630   -1.5500    3.5060 c3        1 MOL     -0.498278
    109 C39         1.2290   -2.4330    6.0000 c3        1 MOL     -0.265149
    110 H46        -0.3310   -3.8780    2.9460 hn        1 MOL      0.338608
    111 H47         0.7510   -1.5120    1.7300 h1        1 MOL      0.160423
    112 H48         1.9310   -3.4140    3.7010 hc        1 MOL      0.055908
    113 H49        -0.2480   -1.8630    4.4950 hc        1 MOL      0.056833
    114 H50         1.0400   -0.7520    4.7150 hc        1 MOL      0.056833
    115 H51         2.8400   -0.5410    3.1070 hc        1 MOL      0.117125
    116 H52         3.3580   -1.4710    4.5150 hc        1 MOL      0.117125
    117 H53         3.7440   -2.0600    2.9370 hc        1 MOL      0.117125
    118 H54         2.2200   -2.1460    6.3370 hc        1 MOL      0.072585
    119 H55         0.4820   -1.9570    6.6400 hc        1 MOL      0.072585
    120 H56         1.1540   -3.5230    5.9830 hc        1 MOL      0.072585
    121 N11         2.7270   -2.7660    0.2250 n         1 MOL     -0.083637
    122 C40         3.7290   -3.4790   -0.6440 c3        1 MOL      0.062433
    123 C41         5.0840   -2.8970   -0.4080 c         1 MOL      0.374916
    124 O16         5.2400   -1.9620    0.3940 o         1 MOL     -0.363781
    125 C42         3.3120   -3.5000   -2.1230 c3        1 MOL      0.018276
    126 O17         2.8120   -2.1930   -2.5480 oh        1 MOL     -0.561322
    127 H57         2.8520   -1.7820    0.4040 hn        1 MOL      0.240738
    128 H58         3.7510   -4.5430   -0.3990 h1        1 MOL      0.085443
    129 H59         2.5650   -4.2820   -2.2800 h1        1 MOL      0.046455
    130 H60         4.2230   -3.7010   -2.6770 h1        1 MOL      0.046455
    131 H61         2.2570   -2.3300   -3.3110 ho        1 MOL      0.357707
    132 N12         6.1470   -3.4820   -0.9900 n         1 MOL     -0.464912
    133 C43         7.5540   -3.1240   -0.7230 c3        1 MOL      0.144418
    134 C44         7.8710   -1.6180   -1.0220 c         1 MOL      0.361542
    135 O18         8.4500   -0.9180   -0.1540 o         1 MOL     -0.475649
    136 C45         8.5470   -3.9860   -1.5920 c3        1 MOL     -0.330972
    137 H62         6.0110   -4.2190   -1.6750 hn        1 MOL      0.283399
    138 H63         7.8130   -3.2700    0.3280 h1        1 MOL      0.095804
    139 H64         8.5100   -3.7530   -2.6560 hc        1 MOL      0.108775
    140 H65         9.5670   -3.9810   -1.2080 hc        1 MOL      0.108775
    141 H66         8.3340   -5.0550   -1.5070 hc        1 MOL      0.108775
    142 N13         7.3910   -1.0930   -2.1230 n         1 MOL     -0.258465
    143 C46         7.5000    0.2840   -2.3920 c3        1 MOL     -0.026873
    144 C47         6.7450    1.1770   -1.3820 c         1 MOL      0.357733
    145 O19         7.0820    2.3310   -1.1910 o         1 MOL     -0.539683
    146 C48         6.9510    0.6240   -3.7840 c3        1 MOL     -0.190066
    147 H67         7.1760   -1.6120   -2.9610 hn        1 MOL      0.259596
    148 H68         8.5600    0.5270   -2.4280 h1        1 MOL      0.118129
    149 H69         5.8980    0.3120   -3.7900 hc        1 MOL      0.063913
    150 H70         6.9630    1.6970   -3.9800 hc        1 MOL      0.063913
    151 H71         7.4770    0.1580   -4.6200 hc        1 MOL      0.063913
    152 N14         5.7390    0.7370   -0.6810 n         1 MOL     -0.084474
    153 C49         4.9610    1.5570    0.2290 c3        1 MOL     -0.098769
    154 C50         5.6660    1.5450    1.6070 c         1 MOL      0.557690
    155 O20         5.6800    2.5340    2.2700 o         1 MOL     -0.557980
    156 C51         3.5010    1.0570    0.3100 c3        1 MOL      0.061263
    157 C52         2.8060    1.0230   -1.0420 c3        1 MOL      0.153743
    158 C53         1.2700    0.9190   -0.9150 c         1 MOL      0.435094
    159 O21         0.6860    0.3840    0.0520 o         1 MOL     -0.714808
    160 O22         0.5430    1.5710   -1.7270 o         1 MOL     -0.714808
    161 H72         5.4950   -0.2480   -0.6980 hn        1 MOL      0.144247
    162 H73         4.9860    2.5980   -0.0610 h1        1 MOL      0.042190
    163 H74         3.0210    1.8090    0.9440 hc        1 MOL     -0.003886
    164 H75         3.5020    0.0770    0.7980 hc        1 MOL     -0.003886
    165 H76         3.2720    0.3370   -1.7430 hc        1 MOL     -0.065153
    166 H77         2.9990    2.0110   -1.4660 hc        1 MOL     -0.065153
    167 N15         6.3820    0.4730    1.9070 n         1 MOL     -0.102113
    168 C54         7.1680    0.2720    3.0800 c3        1 MOL     -0.362344
    169 H78         8.2170    0.4600    2.8510 h1        1 MOL      0.130691
    170 H79         6.8390    0.9570    3.8610 h1        1 MOL      0.130691
    171 H80         7.0520   -0.7550    3.4250 h1        1 MOL      0.130691
    172 H81         6.3430   -0.2520    1.2020 hn        1 MOL      0.116865
    173 Ca1        -1.5920   -0.0910   -1.2540 Ca        1 MOL      1.811715
    174 O23        -1.6100   -1.4660   -3.7750 oh        1 MOL     -0.911724
    175 H82        -2.0310   -0.8480   -4.3780 ho        1 MOL      0.428788
    176 H83        -1.0520   -2.0100   -4.3340 ho        1 MOL      0.428788
    177 O24         0.1560   -2.1250   -1.6490 oh        1 MOL     -0.911724
    178 H84         0.3660   -2.1730   -2.5830 ho        1 MOL      0.428788
    179 H85         0.9910   -2.3140   -1.2020 ho        1 MOL      0.428788
@<TRIPOS>BOND
     1    1    2 1   
     2    1    4 1   
     3    1    5 1   
     4    1    6 1   
     5    2    3 2   
     6    2    7 1   
     7    7    8 1   
     8    7   15 1   
     9    8    9 1   
    10    8   11 1   
    11    8   16 1   
    12    9   10 2   
    13    9   19 1   
    14   11   12 1   
    15   11   17 1   
    16   11   18 1   
    17   12   13 1   
    18   12   14 1   
    19   19   20 1   
    20   19   28 1   
    21   20   21 1   
    22   20   23 1   
    23   20   29 1   
    24   21   22 2   
    25   21   41 1   
    26   23   24 1   
    27   23   30 1   
    28   23   31 1   
    29   24   25 1   
    30   24   32 1   
    31   24   33 1   
    32   25   26 1   
    33   25   34 1   
    34   25   35 1   
    35   26   27 1   
    36   26   36 1   
    37   26   37 1   
    38   27   38 1   
    39   27   39 1   
    40   27   40 1   
    41   41   42 1   
    42   41   49 1   
    43   42   43 1   
    44   42   45 1   
    45   42   50 1   
    46   43   44 2   
    47   43   53 1   
    48   45   46 1   
    49   45   51 1   
    50   45   52 1   
    51   46   47 1   
    52   46   48 1   
    53   53   54 1   
    54   53   57 1   
    55   54   55 1   
    56   54   58 1   
    57   54   59 1   
    58   55   56 2   
    59   55   60 1   
    60   60   61 1   
    61   60   68 1   
    62   61   62 1   
    63   61   64 1   
    64   61   69 1   
    65   62   63 2   
    66   62   74 1   
    67   64   65 1   
    68   64   70 1   
    69   64   71 1   
    70   65   66 1   
    71   65   67 2   
    72   66   72 1   
    73   66   73 1   
    74   74   75 1   
    75   74   78 1   
    76   75   76 1   
    77   75   79 1   
    78   75   80 1   
    79   76   77 2   
    80   76   81 1   
    81   81   82 1   
    82   81   93 1   
    83   82   83 1   
    84   82   85 1   
    85   82   94 1   
    86   83   84 2   
    87   83  102 1   
    88   85   86 1   
    89   85   95 1   
    90   85   96 1   
    91   86   87 ar  
    92   86   88 ar  
    93   87   89 ar  
    94   87   97 1   
    95   88   90 ar  
    96   88   98 1   
    97   89   91 ar  
    98   89   99 1   
    99   90   91 ar  
   100   90  100 1   
   101   91   92 1   
   102   92  101 1   
   103  102  103 1   
   104  102  110 1   
   105  103  104 1   
   106  103  106 1   
   107  103  111 1   
   108  104  105 2   
   109  104  121 1   
   110  106  107 1   
   111  106  108 1   
   112  106  112 1   
   113  107  109 1   
   114  107  113 1   
   115  107  114 1   
   116  108  115 1   
   117  108  116 1   
   118  108  117 1   
   119  109  118 1   
   120  109  119 1   
   121  109  120 1   
   122  121  122 1   
   123  121  127 1   
   124  122  123 1   
   125  122  125 1   
   126  122  128 1   
   127  123  124 2   
   128  123  132 1   
   129  125  126 1   
   130  125  129 1   
   131  125  130 1   
   132  126  131 1   
   133  132  133 1   
   134  132  137 1   
   135  133  134 1   
   136  133  136 1   
   137  133  138 1   
   138  134  135 2   
   139  134  142 1   
   140  136  139 1   
   141  136  140 1   
   142  136  141 1   
   143  142  143 1   
   144  142  147 1   
   145  143  144 1   
   146  143  146 1   
   147  143  148 1   
   148  144  145 2   
   149  144  152 1   
   150  146  149 1   
   151  146  150 1   
   152  146  151 1   
   153  152  153 1   
   154  152  161 1   
   155  153  154 1   
   156  153  156 1   
   157  153  162 1   
   158  154  155 2   
   159  154  167 1   
   160  156  157 1   
   161  156  163 1   
   162  156  164 1   
   163  157  158 1   
   164  157  165 1   
   165  157  166 1   
   166  158  159 1   
   167  158  160 1   
   168  167  168 1   
   169  167  172 1   
   170  168  169 1   
   171  168  170 1   
   172  168  171 1   
   173  174  175 1   
   174  174  176 1   
   175  177  178 1   
   176  177  179 1   
@<TRIPOS>SUBSTRUCTURE
     1 MOL         1 TEMP              0 ****  ****    0 ROOT
