@<TRIPOS>MOLECULE
MOL
  179   176     1     0     0
SMALL
resp


@<TRIPOS>ATOM
      1 C1          1.9360    3.8400    3.7550 c3        1 MOL     -0.431397
      2 C2          1.0610    3.3810    2.6080 c         1 MOL      0.538761
      3 O1          1.3600    3.5120    1.4240 o         1 MOL     -0.559401
      4 H1          2.5140    4.7110    3.4450 hc        1 MOL      0.121274
      5 H2          1.3100    4.1060    4.6070 hc        1 MOL      0.121274
      6 H3          2.6150    3.0360    4.0380 hc        1 MOL      0.121274
      7 N1         -0.1560    2.9120    2.9950 n         1 MOL     -0.532790
      8 C3         -1.2190    2.5670    2.0490 c3        1 MOL      0.200711
      9 C4         -2.0570    3.8360    1.5830 c         1 MOL      0.530494
     10 O2         -3.1000    4.0970    2.1920 o         1 MOL     -0.490869
     11 C5         -2.0240    1.4710    2.6740 c3        1 MOL     -0.496791
     12 C6         -3.1670    1.0550    1.7330 c         1 MOL      0.838719
     13 O3         -4.1570    0.4050    2.0580 o         1 MOL     -0.686708
     14 O4         -2.9190    1.1430    0.5290 o         1 MOL     -0.686708
     15 H4         -0.3670    2.9750    3.9840 hn        1 MOL      0.345919
     16 H5         -0.7780    2.1280    1.1550 h1        1 MOL     -0.082385
     17 H6         -2.5310    1.9040    3.5330 hc        1 MOL      0.118766
     18 H7         -1.3290    0.6370    2.7970 hc        1 MOL      0.118766
     19 N2         -1.5810    4.5220    0.5740 n         1 MOL     -0.563992
     20 C7         -2.2360    5.6660    0.0200 c3        1 MOL      0.069278
     21 C8         -3.3990    5.2730   -0.9320 c         1 MOL      0.363003
     22 O5         -4.3940    5.9810   -0.9040 o         1 MOL     -0.506280
     23 C9         -1.1510    6.4770   -0.7180 c3        1 MOL     -0.116795
     24 C10        -0.1070    7.0830    0.2250 c3        1 MOL      0.076619
     25 C11         0.8710    7.9180   -0.6200 c3        1 MOL      0.036806
     26 C12         1.8030    8.7000    0.3570 c3        1 MOL     -0.104955
     27 N3          2.9700    8.0130    0.8300 n4        1 MOL     -0.328051
     28 H8         -0.6290    4.2910    0.3520 hn        1 MOL      0.381614
     29 H9         -2.6950    6.3360    0.7320 h1        1 MOL      0.091527
     30 H10        -1.5010    7.3090   -1.3420 hc        1 MOL      0.048951
     31 H11        -0.7020    5.8020   -1.4480 hc        1 MOL      0.048951
     32 H12         0.5590    6.3620    0.6990 hc        1 MOL      0.004102
     33 H13        -0.6000    7.7310    0.9520 hc        1 MOL      0.004102
     34 H14         0.4640    8.5970   -1.3610 hc        1 MOL      0.029371
     35 H15         1.5160    7.1890   -1.1250 hc        1 MOL      0.029371
     36 H16         1.1110    8.8890    1.1820 hx        1 MOL      0.114370
     37 H17         2.0350    9.6530   -0.1350 hx        1 MOL      0.114370
     38 H18         3.5470    8.5120    1.4880 hn        1 MOL      0.332268
     39 H19         2.8010    7.0640    1.1440 hn        1 MOL      0.332268
     40 H20         3.5810    7.8000    0.0550 hn        1 MOL      0.332268
     41 N4         -3.3370    4.1750   -1.6770 n         1 MOL     -0.173592
     42 C13        -4.4250    3.9260   -2.6450 c3        1 MOL      0.046033
     43 C14        -5.6850    3.3600   -2.0180 c         1 MOL      0.425697
     44 O6         -6.7960    3.6650   -2.4430 o         1 MOL     -0.539993
     45 C15        -3.7540    2.8970   -3.6370 c3        1 MOL     -0.266738
     46 C16        -3.0790    1.6750   -2.9730 c         1 MOL      0.861683
     47 O7         -1.9150    1.7830   -2.5790 o         1 MOL     -0.788909
     48 O8         -3.6990    0.6040   -2.8510 o         1 MOL     -0.788909
     49 H21        -2.5200    3.6040   -1.8120 hn        1 MOL      0.174099
     50 H22        -4.6570    4.8410   -3.1980 h1        1 MOL      0.087104
     51 H23        -3.0410    3.4470   -4.2410 hc        1 MOL      0.062171
     52 H24        -4.5610    2.5400   -4.2770 hc        1 MOL      0.062171
     53 N5         -5.5880    2.6430   -0.8650 n         1 MOL     -0.080297
     54 C17        -6.7100    2.2490   -0.0090 c3        1 MOL     -0.181639
     55 C18        -6.9370    0.7310    0.1960 c         1 MOL      0.545580
     56 O9         -7.8940    0.3260    0.8890 o         1 MOL     -0.563931
     57 H25        -4.6550    2.3770   -0.5640 hn        1 MOL      0.171043
     58 H26        -7.6200    2.6340   -0.4790 h1        1 MOL      0.105241
     59 H27        -6.6300    2.6970    0.9770 h1        1 MOL      0.105241
     60 N6         -6.2310   -0.1610   -0.5440 n         1 MOL     -0.274678
     61 C19        -6.6110   -1.5840   -0.6150 c3        1 MOL     -0.067983
     62 C20        -6.5670   -2.5310    0.6650 c         1 MOL      0.486358
     63 O10        -7.1250   -3.5850    0.6390 o         1 MOL     -0.562910
     64 C21        -5.8720   -2.2790   -1.8200 c3        1 MOL     -0.167082
     65 C22        -4.3820   -2.3870   -1.6530 c         1 MOL      0.645321
     66 N7         -3.7470   -2.9090   -2.6810 n         1 MOL     -0.664061
     67 O11        -3.7520   -1.9500   -0.6560 o         1 MOL     -0.537692
     68 H28        -5.3990    0.1570   -1.0240 hn        1 MOL      0.118446
     69 H29        -7.6620   -1.6190   -0.9260 h1        1 MOL      0.101001
     70 H30        -6.1650   -1.7360   -2.7220 hc        1 MOL      0.070945
     71 H31        -6.2170   -3.3090   -1.9460 hc        1 MOL      0.070945
     72 H32        -4.2780   -3.2740   -3.4520 hn        1 MOL      0.308761
     73 H33        -2.8100   -3.2150   -2.4660 hn        1 MOL      0.308761
     74 N8         -5.7790   -2.1050    1.6110 n         1 MOL     -0.113715
     75 C23        -5.6120   -2.8080    2.9400 c3        1 MOL     -0.275258
     76 C24        -4.1860   -3.0740    3.2550 c         1 MOL      0.607252
     77 O12        -3.8800   -3.4270    4.3830 o         1 MOL     -0.601768
     78 H34        -5.3100   -1.2200    1.4650 hn        1 MOL      0.233621
     79 H35        -6.0420   -3.8060    2.9060 h1        1 MOL      0.127914
     80 H36        -5.9950   -2.1260    3.7050 h1        1 MOL      0.127914
     81 N9         -3.2860   -2.8180    2.3730 n         1 MOL     -0.180704
     82 C25        -1.9650   -3.4190    2.5190 c3        1 MOL     -0.036756
     83 C26        -0.8420   -2.5300    1.8790 c         1 MOL      0.519077
     84 O13        -1.0980   -1.5610    1.1170 o         1 MOL     -0.591368
     85 C27        -1.9070   -4.9140    2.0720 c3        1 MOL     -0.094445
     86 C28        -2.3710   -5.2080    0.6590 ca        1 MOL      0.008758
     87 C29        -1.4610   -5.1760   -0.4460 ca        1 MOL     -0.140306
     88 C30        -3.7430   -5.3800    0.4710 ca        1 MOL     -0.140306
     89 C31        -1.9330   -5.5860   -1.7310 ca        1 MOL     -0.312124
     90 C32        -4.1630   -5.7140   -0.7780 ca        1 MOL     -0.312124
     91 C33        -3.3300   -5.7800   -1.8330 ca        1 MOL      0.481383
     92 O14        -3.8050   -6.2680   -2.9350 oh        1 MOL     -0.570832
     93 H37        -3.4930   -2.2780    1.5450 hn        1 MOL      0.114833
     94 H38        -1.6820   -3.3710    3.5740 h1        1 MOL      0.076232
     95 H39        -2.4360   -5.6050    2.7220 hc        1 MOL      0.059077
     96 H40        -0.8700   -5.2370    2.0990 hc        1 MOL      0.059077
     97 H41        -0.4120   -5.1270   -0.1970 ha        1 MOL      0.154817
     98 H42        -4.3580   -5.2110    1.3430 ha        1 MOL      0.154817
     99 H43        -1.2340   -5.8120   -2.5210 ha        1 MOL      0.144336
    100 H44        -5.2320   -5.7570   -0.9050 ha        1 MOL      0.144336
    101 H45        -4.7590   -6.3700   -2.9110 ho        1 MOL      0.399258
    102 N10         0.4140   -2.8530    2.1330 n         1 MOL     -0.323305
    103 C34         1.6440   -2.2360    1.4910 c3        1 MOL     -0.146635
    104 C35         2.6400   -3.3160    1.0890 c         1 MOL      0.432617
    105 O15         2.6180   -4.4860    1.5350 o         1 MOL     -0.536138
    106 C36         2.2480   -1.2690    2.4170 c3        1 MOL      0.173325
    107 C37         2.6260   -1.7580    3.8220 c3        1 MOL     -0.034146
    108 C38         1.4580   -0.0080    2.4050 c3        1 MOL     -0.841754
    109 C39         3.4820   -0.7700    4.6860 c3        1 MOL     -0.190177
    110 H46         0.5930   -3.5690    2.8250 hn        1 MOL      0.247741
    111 H47         1.2970   -1.7570    0.5710 h1        1 MOL      0.096429
    112 H48         3.2160   -1.0140    1.9860 hc        1 MOL     -0.118372
    113 H49         3.2490   -2.6410    3.6440 hc        1 MOL      0.055373
    114 H50         1.7720   -2.0590    4.4330 hc        1 MOL      0.055373
    115 H51         2.1610    0.8040    2.5650 hc        1 MOL      0.273820
    116 H52         0.8740    0.1490    1.4960 hc        1 MOL      0.273820
    117 H53         0.6760   -0.0420    3.1560 hc        1 MOL      0.273820
    118 H54         4.0920   -1.3010    5.4220 hc        1 MOL      0.053588
    119 H55         4.0170   -0.1490    3.9640 hc        1 MOL      0.053588
    120 H56         2.8020   -0.0490    5.1440 hc        1 MOL      0.053588
    121 N11         3.5180   -2.8740    0.2150 n         1 MOL     -0.115280
    122 C40         4.6520   -3.6610   -0.3090 c3        1 MOL     -0.302116
    123 C41         5.9060   -2.7400   -0.2240 c         1 MOL      0.636532
    124 O16         5.8690   -1.5640    0.1740 o         1 MOL     -0.552863
    125 C42         4.2330   -4.2740   -1.5700 c3        1 MOL     -0.021479
    126 O17         3.6990   -3.2310   -2.4730 oh        1 MOL     -0.663892
    127 H57         3.3600   -1.9420   -0.1240 hn        1 MOL      0.371251
    128 H58         4.8220   -4.4620    0.4160 h1        1 MOL      0.130890
    129 H59         3.4060   -4.9570   -1.4050 h1        1 MOL      0.121937
    130 H60         5.0480   -4.7900   -2.0760 h1        1 MOL      0.121937
    131 H61         3.0280   -2.6550   -2.0970 ho        1 MOL      0.434562
    132 N12         7.1200   -3.2580   -0.5270 n         1 MOL     -0.468386
    133 C43         8.4050   -2.6280   -0.1630 c3        1 MOL      0.062611
    134 C44         8.6250   -1.2830   -0.7480 c         1 MOL      0.436899
    135 O18         9.3500   -0.4500   -0.1770 o         1 MOL     -0.531652
    136 C45         9.4910   -3.6860   -0.4630 c3        1 MOL     -0.202290
    137 H62         7.1140   -4.2310   -0.7780 hn        1 MOL      0.280456
    138 H63         8.4210   -2.5660    0.9310 h1        1 MOL      0.107851
    139 H64        10.3500   -3.6510    0.1970 hc        1 MOL      0.076940
    140 H65         9.1340   -4.7140   -0.3360 hc        1 MOL      0.076940
    141 H66         9.8250   -3.6330   -1.4970 hc        1 MOL      0.076940
    142 N13         8.0480   -0.9220   -1.8780 n         1 MOL     -0.292288
    143 C46         8.0910    0.4450   -2.4520 c3        1 MOL      0.120720
    144 C47         7.1560    1.4500   -1.7710 c         1 MOL      0.349654
    145 O19         7.4460    2.6090   -1.5470 o         1 MOL     -0.522033
    146 C48         7.9580    0.3440   -3.9970 c3        1 MOL     -0.285981
    147 H67         7.5820   -1.6550   -2.4000 hn        1 MOL      0.243028
    148 H68         9.0770    0.8580   -2.2790 h1        1 MOL      0.097700
    149 H69         7.0300   -0.1800   -4.2010 hc        1 MOL      0.081164
    150 H70         8.0100    1.3600   -4.3830 hc        1 MOL      0.081164
    151 H71         8.7030   -0.3730   -4.3490 hc        1 MOL      0.081164
    152 N14         6.0450    1.0360   -1.2270 n         1 MOL     -0.048876
    153 C49         5.0710    1.8400   -0.4960 c3        1 MOL     -0.241709
    154 C50         5.5560    2.0090    0.9840 c         1 MOL      0.411914
    155 O20         5.2960    3.1200    1.6400 o         1 MOL     -0.579918
    156 C51         3.7040    1.1110   -0.5070 c3        1 MOL      0.146120
    157 C52         3.1680    0.6820   -1.9360 c3        1 MOL     -0.302590
    158 C53         1.9620   -0.2430   -1.7300 c         1 MOL      0.862155
    159 O21         2.0170   -1.4870   -1.8270 o         1 MOL     -0.764554
    160 O22         0.9080    0.1820   -1.2540 o         1 MOL     -0.764554
    161 H72         5.8050    0.0630   -1.3800 hn        1 MOL      0.179116
    162 H73         5.0050    2.8390   -0.9310 h1        1 MOL      0.145136
    163 H74         2.9020    1.7550   -0.1400 hc        1 MOL      0.060981
    164 H75         3.6840    0.2550    0.1590 hc        1 MOL      0.060981
    165 H76         4.0260    0.1030   -2.2750 hc        1 MOL      0.037256
    166 H77         2.8450    1.6160   -2.3940 hc        1 MOL      0.037256
    167 N15         6.3710    1.0720    1.5270 n         1 MOL     -0.035224
    168 C54         7.1130    1.2440    2.7540 c3        1 MOL     -0.202496
    169 H78         8.1000    0.7940    2.6470 h1        1 MOL      0.089995
    170 H79         7.2200    2.3070    2.9690 h1        1 MOL      0.089995
    171 H80         6.5800    0.7590    3.5720 h1        1 MOL      0.089995
    172 H81         6.5690    0.3440    0.8630 hn        1 MOL      0.131695
    173 Ca1        -1.6520   -0.3270   -1.3050 Ca        1 MOL      1.755083
    174 O23        -0.3760   -2.6870   -1.8150 oh        1 MOL     -0.869507
    175 H82         0.4400   -2.2020   -1.6900 ho        1 MOL      0.419341
    176 H83        -0.1500   -3.4080   -2.4020 ho        1 MOL      0.419341
    177 O24        -1.4690   -1.0480   -3.8110 oh        1 MOL     -0.869507
    178 H84        -1.9230   -0.5040   -4.4580 ho        1 MOL      0.419341
    179 H85        -1.3530   -1.8880   -4.2410 ho        1 MOL      0.419341
@<TRIPOS>BOND
     1    1    2 1   
     2    1    4 1   
     3    1    5 1   
     4    1    6 1   
     5    2    3 2   
     6    2    7 1   
     7    7    8 1   
     8    7   15 1   
     9    8    9 1   
    10    8   11 1   
    11    8   16 1   
    12    9   10 2   
    13    9   19 1   
    14   11   12 1   
    15   11   17 1   
    16   11   18 1   
    17   12   13 1   
    18   12   14 1   
    19   19   20 1   
    20   19   28 1   
    21   20   21 1   
    22   20   23 1   
    23   20   29 1   
    24   21   22 2   
    25   21   41 1   
    26   23   24 1   
    27   23   30 1   
    28   23   31 1   
    29   24   25 1   
    30   24   32 1   
    31   24   33 1   
    32   25   26 1   
    33   25   34 1   
    34   25   35 1   
    35   26   27 1   
    36   26   36 1   
    37   26   37 1   
    38   27   38 1   
    39   27   39 1   
    40   27   40 1   
    41   41   42 1   
    42   41   49 1   
    43   42   43 1   
    44   42   45 1   
    45   42   50 1   
    46   43   44 2   
    47   43   53 1   
    48   45   46 1   
    49   45   51 1   
    50   45   52 1   
    51   46   47 1   
    52   46   48 1   
    53   53   54 1   
    54   53   57 1   
    55   54   55 1   
    56   54   58 1   
    57   54   59 1   
    58   55   56 2   
    59   55   60 1   
    60   60   61 1   
    61   60   68 1   
    62   61   62 1   
    63   61   64 1   
    64   61   69 1   
    65   62   63 2   
    66   62   74 1   
    67   64   65 1   
    68   64   70 1   
    69   64   71 1   
    70   65   66 1   
    71   65   67 2   
    72   66   72 1   
    73   66   73 1   
    74   74   75 1   
    75   74   78 1   
    76   75   76 1   
    77   75   79 1   
    78   75   80 1   
    79   76   77 2   
    80   76   81 1   
    81   81   82 1   
    82   81   93 1   
    83   82   83 1   
    84   82   85 1   
    85   82   94 1   
    86   83   84 2   
    87   83  102 1   
    88   85   86 1   
    89   85   95 1   
    90   85   96 1   
    91   86   87 ar  
    92   86   88 ar  
    93   87   89 ar  
    94   87   97 1   
    95   88   90 ar  
    96   88   98 1   
    97   89   91 ar  
    98   89   99 1   
    99   90   91 ar  
   100   90  100 1   
   101   91   92 1   
   102   92  101 1   
   103  102  103 1   
   104  102  110 1   
   105  103  104 1   
   106  103  106 1   
   107  103  111 1   
   108  104  105 2   
   109  104  121 1   
   110  106  107 1   
   111  106  108 1   
   112  106  112 1   
   113  107  109 1   
   114  107  113 1   
   115  107  114 1   
   116  108  115 1   
   117  108  116 1   
   118  108  117 1   
   119  109  118 1   
   120  109  119 1   
   121  109  120 1   
   122  121  122 1   
   123  121  127 1   
   124  122  123 1   
   125  122  125 1   
   126  122  128 1   
   127  123  124 2   
   128  123  132 1   
   129  125  126 1   
   130  125  129 1   
   131  125  130 1   
   132  126  131 1   
   133  132  133 1   
   134  132  137 1   
   135  133  134 1   
   136  133  136 1   
   137  133  138 1   
   138  134  135 2   
   139  134  142 1   
   140  136  139 1   
   141  136  140 1   
   142  136  141 1   
   143  142  143 1   
   144  142  147 1   
   145  143  144 1   
   146  143  146 1   
   147  143  148 1   
   148  144  145 2   
   149  144  152 1   
   150  146  149 1   
   151  146  150 1   
   152  146  151 1   
   153  152  153 1   
   154  152  161 1   
   155  153  154 1   
   156  153  156 1   
   157  153  162 1   
   158  154  155 2   
   159  154  167 1   
   160  156  157 1   
   161  156  163 1   
   162  156  164 1   
   163  157  158 1   
   164  157  165 1   
   165  157  166 1   
   166  158  159 1   
   167  158  160 1   
   168  167  168 1   
   169  167  172 1   
   170  168  169 1   
   171  168  170 1   
   172  168  171 1   
   173  174  175 1   
   174  174  176 1   
   175  177  178 1   
   176  177  179 1   
@<TRIPOS>SUBSTRUCTURE
     1 MOL         1 TEMP              0 ****  ****    0 ROOT
