@<TRIPOS>MOLECULE
MOL
  189   185     1     0     0
SMALL
resp


@<TRIPOS>ATOM
      1 C1         -0.6910    3.5630    5.5030 c3        1 MOL     -0.305397
      2 C2         -0.8410    2.8780    4.1280 c         1 MOL      0.795713
      3 O1          0.0520    3.0300    3.3140 o         1 MOL     -0.657576
      4 H1         -1.3990    4.3890    5.5760 hc        1 MOL      0.071191
      5 H2         -0.8930    2.8400    6.2930 hc        1 MOL      0.071191
      6 H3          0.3240    3.9460    5.6090 hc        1 MOL      0.071191
      7 N1         -2.0390    2.2560    3.8120 n         1 MOL     -0.671149
      8 C3         -2.4610    1.9280    2.4580 c3        1 MOL      0.050349
      9 C4         -2.7430    3.2270    1.7390 c         1 MOL      0.561944
     10 O2         -3.5600    4.0820    2.1870 o         1 MOL     -0.590791
     11 C5         -3.6410    0.9860    2.6330 c3        1 MOL     -0.134311
     12 C6         -4.2010    0.5150    1.3300 c         1 MOL      0.905668
     13 O3         -5.3890    0.1620    1.2490 o         1 MOL     -0.769645
     14 O4         -3.4300    0.5910    0.3210 o         1 MOL     -0.769645
     15 H4         -2.6410    2.0890    4.6030 hn        1 MOL      0.343526
     16 H5         -1.6930    1.3660    1.9360 h1        1 MOL      0.078273
     17 H6         -4.3240    1.3820    3.3940 hc        1 MOL      0.034511
     18 H7         -3.2940    0.1050    3.1740 hc        1 MOL      0.034511
     19 N2         -2.1050    3.5070    0.6200 n         1 MOL     -0.226505
     20 C7         -2.2670    4.8170   -0.0740 c3        1 MOL      0.077767
     21 C8         -3.4370    4.8430   -1.0850 c         1 MOL      0.443631
     22 O5         -4.0920    5.8510   -1.3160 o         1 MOL     -0.542992
     23 C9         -1.0520    5.1410   -0.8470 c3        1 MOL     -0.096937
     24 C10         0.1330    5.7260   -0.0520 c3        1 MOL      0.135293
     25 C11        -0.1440    7.0690    0.6720 c3        1 MOL     -0.089170
     26 C12         1.0750    7.9090    0.9970 c3        1 MOL     -0.019429
     27 N3          2.0250    7.3720    1.9930 n4        1 MOL     -0.335426
     28 H8         -1.5840    2.7450    0.2190 hn        1 MOL      0.113735
     29 H9         -2.4500    5.6660    0.5940 h1        1 MOL      0.022245
     30 H10        -1.2920    5.8030   -1.6720 hc        1 MOL      0.041941
     31 H11        -0.6550    4.2190   -1.2870 hc        1 MOL      0.041941
     32 H12         0.9140    5.9240   -0.7870 hc        1 MOL     -0.024940
     33 H13         0.5650    5.0230    0.6560 hc        1 MOL     -0.024940
     34 H14        -0.6280    6.7800    1.6040 hc        1 MOL      0.067560
     35 H15        -0.8450    7.6650    0.0840 hc        1 MOL      0.067560
     36 H16         0.7190    8.8940    1.2940 hx        1 MOL      0.091431
     37 H17         1.6260    8.0000    0.0710 hx        1 MOL      0.091431
     38 H18         2.7910    7.9990    2.1850 hn        1 MOL      0.327722
     39 H19         1.5910    7.1550    2.8760 hn        1 MOL      0.327722
     40 H20         2.2370    6.4010    1.8170 hn        1 MOL      0.327722
     41 N4         -3.5460    3.6770   -1.7980 n         1 MOL     -0.134120
     42 C13        -4.3640    3.4530   -2.9030 c3        1 MOL     -0.044066
     43 C14        -5.5300    2.4630   -2.7100 c         1 MOL      0.440160
     44 O6         -6.1590    2.0740   -3.7520 o         1 MOL     -0.527735
     45 C15        -3.4370    3.1190   -4.1280 c3        1 MOL     -0.249358
     46 C16        -2.4520    1.9340   -3.9090 c         1 MOL      0.863467
     47 O7         -1.5430    1.7570   -4.7380 o         1 MOL     -0.732983
     48 O8         -2.4980    1.3120   -2.8150 o         1 MOL     -0.732983
     49 H21        -2.9120    2.9100   -1.6100 hn        1 MOL      0.065037
     50 H22        -4.8380    4.4040   -3.1270 h1        1 MOL      0.098509
     51 H23        -2.8740    4.0040   -4.4090 hc        1 MOL      0.060384
     52 H24        -3.9860    2.8050   -5.0200 hc        1 MOL      0.060384
     53 N5         -5.7110    2.0250   -1.4820 n         1 MOL     -0.139766
     54 C17        -6.9800    1.5710   -0.9270 c3        1 MOL     -0.572845
     55 C18        -7.3880    0.1060   -1.0700 c         1 MOL      0.704688
     56 O9         -8.4600   -0.2350   -0.5180 o         1 MOL     -0.582007
     57 H25        -4.9820    1.9910   -0.7880 hn        1 MOL      0.179142
     58 H26        -7.7880    1.9110   -1.5760 h1        1 MOL      0.218134
     59 H27        -6.9680    1.8210    0.1350 h1        1 MOL      0.218134
     60 N6         -6.5030   -0.7010   -1.7200 n         1 MOL     -0.481215
     61 C19        -6.7520   -2.1010   -2.0670 c3        1 MOL      0.082953
     62 C20        -6.9320   -3.0010   -0.8530 c         1 MOL      0.328895
     63 O10        -7.3880   -4.1390   -0.9060 o         1 MOL     -0.518289
     64 C21        -5.5770   -2.6440   -2.8970 c3        1 MOL     -0.037314
     65 C22        -4.1960   -2.0840   -2.4790 c         1 MOL      0.492347
     66 O11        -3.4850   -1.4460   -3.3370 o         1 MOL     -0.621569
     67 O12        -3.7960   -2.3240   -1.3240 o         1 MOL     -0.621569
     68 H28        -5.7920   -0.2140   -2.2500 hn        1 MOL      0.298227
     69 H29        -7.6280   -2.2450   -2.7070 h1        1 MOL      0.061965
     70 H30        -5.7000   -2.3370   -3.9300 hc        1 MOL      0.032822
     71 H31        -5.7080   -3.7250   -2.8930 hc        1 MOL      0.032822
     72 N7         -6.5010   -2.5460    0.3760 n         1 MOL     -0.046882
     73 C23        -6.6240   -3.4010    1.5840 c3        1 MOL     -0.225413
     74 C24        -5.2890   -4.1940    1.8770 c         1 MOL      0.603035
     75 O13        -5.4130   -5.1600    2.6470 o         1 MOL     -0.569228
     76 H32        -6.0090   -1.6710    0.3940 hn        1 MOL      0.261391
     77 H33        -7.5060   -4.0350    1.5800 h1        1 MOL      0.101479
     78 H34        -6.5670   -2.6560    2.3760 h1        1 MOL      0.101479
     79 N8         -4.1400   -3.7410    1.3000 n         1 MOL     -0.296918
     80 C25        -2.8040   -4.4740    1.3880 c3        1 MOL     -0.242744
     81 C26        -1.7520   -3.3450    1.4550 c         1 MOL      0.745289
     82 O14        -1.9780   -2.2570    0.9940 o         1 MOL     -0.720232
     83 C27        -2.5330   -5.4530    0.2590 c3        1 MOL      0.553927
     84 C28        -3.3390   -6.7210    0.4320 c3        1 MOL     -0.510904
     85 O15        -2.8290   -4.9300   -1.0140 oh        1 MOL     -0.625041
     86 H35        -4.3530   -2.9920    0.6530 hn        1 MOL      0.140264
     87 H36        -2.7440   -5.0650    2.3100 h1        1 MOL      0.107396
     88 H37        -1.4720   -5.7100    0.3390 h1        1 MOL     -0.053576
     89 H38        -3.2300   -4.0670   -0.8710 ho        1 MOL      0.406515
     90 H39        -3.0160   -7.1340    1.3830 hc        1 MOL      0.128922
     91 H40        -4.3890   -6.4810    0.5960 hc        1 MOL      0.128922
     92 H41        -3.1140   -7.3690   -0.4230 hc        1 MOL      0.128922
     93 N9         -0.6070   -3.6140    2.0220 n         1 MOL     -0.616311
     94 C29         0.5220   -2.7190    2.2780 c3        1 MOL      0.044106
     95 C30         1.8460   -3.2790    1.6680 c         1 MOL      0.480081
     96 O16         2.4120   -4.3400    1.9920 o         1 MOL     -0.548755
     97 C31         0.6700   -2.3340    3.7780 c3        1 MOL     -0.025831
     98 C32        -0.6750   -1.5500    4.1120 c3        1 MOL      0.061656
     99 C33         1.9410   -1.4660    4.0000 c3        1 MOL     -0.226906
    100 C34        -0.6570   -0.9440    5.5180 c3        1 MOL     -0.188338
    101 H42        -0.4920   -4.4980    2.4960 hn        1 MOL      0.312098
    102 H43         0.3050   -1.7380    1.8430 h1        1 MOL      0.117146
    103 H44         0.7190   -3.1890    4.4540 hc        1 MOL      0.051199
    104 H45        -1.6020   -2.1060    4.0550 hc        1 MOL      0.036130
    105 H46        -0.8000   -0.6800    3.4740 hc        1 MOL      0.036130
    106 H47         1.9120   -1.2220    5.0590 hc        1 MOL      0.062867
    107 H48         2.8380   -2.0250    3.7500 hc        1 MOL      0.062867
    108 H49         1.9890   -0.5610    3.3810 hc        1 MOL      0.062867
    109 H50        -1.6260   -0.5230    5.7820 hc        1 MOL      0.041662
    110 H51        -0.4890   -1.7480    6.2270 hc        1 MOL      0.041662
    111 H52         0.0970   -0.1610    5.6120 hc        1 MOL      0.041662
    112 N10         2.4230   -2.5290    0.7100 n         1 MOL     -0.109360
    113 C35         3.6350   -2.9230   -0.0390 c3        1 MOL      0.006674
    114 C36         4.9080   -2.4070    0.6660 c         1 MOL      0.322892
    115 O17         4.8110   -1.5870    1.5570 o         1 MOL     -0.309841
    116 C37         3.6280   -2.3830   -1.5290 c3        1 MOL      0.196547
    117 C38         2.5160   -2.7980   -2.4470 c3        1 MOL     -0.282746
    118 O18         3.6340   -0.9470   -1.3020 oh        1 MOL     -0.450292
    119 H53         1.9660   -1.6740    0.4340 hn        1 MOL      0.042229
    120 H54         3.8620   -3.9780   -0.1050 h1        1 MOL      0.039833
    121 H55         4.5660   -2.6770   -1.9940 h1        1 MOL      0.005357
    122 H56         2.7010   -0.7060   -1.3130 ho        1 MOL      0.318850
    123 H57         1.5900   -2.6050   -1.9160 hc        1 MOL      0.094944
    124 H58         2.6470   -2.2740   -3.3900 hc        1 MOL      0.094944
    125 H59         2.6740   -3.8790   -2.5070 hc        1 MOL      0.094944
    126 N11         6.0570   -2.7090    0.0140 n         1 MOL     -0.200960
    127 C39         7.3360   -2.0760    0.3940 c3        1 MOL     -0.449849
    128 C40         7.5290   -0.5960    0.0670 c         1 MOL      0.557631
    129 O19         8.3320    0.0300    0.6380 o         1 MOL     -0.502506
    130 C41         8.5640   -2.8430   -0.0920 c3        1 MOL      0.380291
    131 C42         8.6610   -4.3790    0.2030 c3        1 MOL     -0.313823
    132 O20         8.4520   -2.9330   -1.5230 oh        1 MOL     -0.717057
    133 H60         6.0160   -3.3810   -0.7340 hn        1 MOL      0.302907
    134 H61         7.2910   -2.1080    1.4830 h1        1 MOL      0.224248
    135 H62         9.5240   -2.3680    0.1310 h1        1 MOL      0.052756
    136 H63         9.2740   -3.2420   -1.9170 ho        1 MOL      0.396275
    137 H64         7.7140   -4.8060   -0.1370 hc        1 MOL      0.091975
    138 H65         9.5920   -4.7820   -0.2060 hc        1 MOL      0.091975
    139 H66         8.8350   -4.4740    1.2730 hc        1 MOL      0.091975
    140 N12         6.7270   -0.0520   -0.9050 n         1 MOL     -0.210479
    141 C43         6.5530    1.4390   -1.2320 c3        1 MOL     -0.115971
    142 C44         5.6370    2.1850   -0.2190 c         1 MOL      0.447473
    143 O21         5.6540    3.4070   -0.1060 o         1 MOL     -0.551849
    144 C45         6.0020    1.6250   -2.6500 c3        1 MOL      0.042175
    145 C46         6.9250    1.3880   -3.8210 c3        1 MOL     -0.125958
    146 C47         7.5910    0.0610   -3.7990 c3        1 MOL      0.061922
    147 C48         8.3790   -0.0320   -5.1490 c3        1 MOL      0.060569
    148 N13         9.1290   -1.2530   -5.2760 n4        1 MOL     -0.422476
    149 H67         5.9860   -0.6540   -1.2320 hn        1 MOL      0.166537
    150 H68         7.5260    1.8960   -1.0700 h1        1 MOL      0.108694
    151 H69         5.6160    2.6440   -2.7040 hc        1 MOL      0.051862
    152 H70         5.1000    1.0320   -2.7970 hc        1 MOL      0.051862
    153 H71         7.7680    2.0820   -3.7930 hc        1 MOL      0.039145
    154 H72         6.3750    1.4620   -4.7590 hc        1 MOL      0.039145
    155 H73         6.8670   -0.7590   -3.7860 hc        1 MOL      0.038211
    156 H74         8.3860   -0.0850   -3.0670 hc        1 MOL      0.038211
    157 H75         9.0780    0.7620   -5.4140 hx        1 MOL      0.070201
    158 H76         7.5760   -0.0160   -5.8870 hx        1 MOL      0.070201
    159 H77         9.5990   -1.3000   -6.1640 hn        1 MOL      0.338870
    160 H78         9.8540   -1.3090   -4.5830 hn        1 MOL      0.338870
    161 H79         8.4920   -2.0430   -5.2450 hn        1 MOL      0.338870
    162 N14         4.8160    1.4280    0.4800 n         1 MOL      0.068949
    163 C49         3.8780    2.0110    1.4530 c3        1 MOL     -0.231344
    164 C50         4.3000    1.8140    2.8980 c         1 MOL      0.495752
    165 O22         3.8460    2.4780    3.8300 o         1 MOL     -0.522334
    166 C51         2.5580    1.3590    1.2410 c3        1 MOL      0.224138
    167 C52         1.9350    1.6680   -0.1050 c3        1 MOL      0.089140
    168 C53         0.6430    0.8930   -0.2140 c         1 MOL      0.320666
    169 O23        -0.4470    1.4420   -0.3310 o         1 MOL     -0.523673
    170 O24         0.6380   -0.3390   -0.2400 o         1 MOL     -0.523673
    171 H80         4.7980    0.4380    0.2460 hn        1 MOL     -0.239100
    172 H81         3.6960    3.0780    1.3170 h1        1 MOL      0.104784
    173 H82         1.8310    1.6830    1.9740 hc        1 MOL      0.037825
    174 H83         2.5740    0.2730    1.3250 hc        1 MOL      0.037825
    175 H84         2.6140    1.3450   -0.8910 hc        1 MOL     -0.034249
    176 H85         1.9110    2.7410   -0.2710 hc        1 MOL     -0.034249
    177 N15         5.2710    0.8530    3.1210 n         1 MOL     -0.333823
    178 C54         5.5550    0.3690    4.4860 c3        1 MOL     -0.143900
    179 H86         6.4670    0.8380    4.8550 h1        1 MOL      0.083252
    180 H87         4.7250    0.6240    5.1430 h1        1 MOL      0.083252
    181 H88         5.6850   -0.7140    4.4680 h1        1 MOL      0.083252
    182 H89         5.5860    0.3470    2.3060 hn        1 MOL      0.252007
    183 Ca1        -1.7980   -0.6080   -1.2120 Ca        1 MOL      1.727909
    184 O25        -1.0430   -3.0500   -2.2790 oh        1 MOL     -0.835399
    185 H90        -0.5210   -3.2370   -3.0630 ho        1 MOL      0.389933
    186 H91        -1.7350   -3.7010   -2.2920 ho        1 MOL      0.389933
    187 O26        -0.1400   -0.0880   -3.3700 oh        1 MOL     -0.835399
    188 H92        -0.7230    0.6210   -3.6650 ho        1 MOL      0.389933
    189 H93         0.7370    0.2090   -3.6190 ho        1 MOL      0.389933
@<TRIPOS>BOND
     1    1    2 1   
     2    1    4 1   
     3    1    5 1   
     4    1    6 1   
     5    2    3 2   
     6    2    7 1   
     7    7    8 1   
     8    7   15 1   
     9    8    9 1   
    10    8   11 1   
    11    8   16 1   
    12    9   10 2   
    13    9   19 1   
    14   11   12 1   
    15   11   17 1   
    16   11   18 1   
    17   12   13 1   
    18   12   14 1   
    19   19   20 1   
    20   19   28 1   
    21   20   21 1   
    22   20   23 1   
    23   20   29 1   
    24   21   22 2   
    25   21   41 1   
    26   23   24 1   
    27   23   30 1   
    28   23   31 1   
    29   24   25 1   
    30   24   32 1   
    31   24   33 1   
    32   25   26 1   
    33   25   34 1   
    34   25   35 1   
    35   26   27 1   
    36   26   36 1   
    37   26   37 1   
    38   27   38 1   
    39   27   39 1   
    40   27   40 1   
    41   41   42 1   
    42   41   49 1   
    43   42   43 1   
    44   42   45 1   
    45   42   50 1   
    46   43   44 2   
    47   43   53 1   
    48   45   46 1   
    49   45   51 1   
    50   45   52 1   
    51   46   47 1   
    52   46   48 1   
    53   53   54 1   
    54   53   57 1   
    55   54   55 1   
    56   54   58 1   
    57   54   59 1   
    58   55   56 2   
    59   55   60 1   
    60   60   61 1   
    61   60   68 1   
    62   61   62 1   
    63   61   64 1   
    64   61   69 1   
    65   62   63 2   
    66   62   72 1   
    67   64   65 1   
    68   64   70 1   
    69   64   71 1   
    70   65   66 1   
    71   65   67 1   
    72   72   73 1   
    73   72   76 1   
    74   73   74 1   
    75   73   77 1   
    76   73   78 1   
    77   74   75 2   
    78   74   79 1   
    79   79   80 1   
    80   79   86 1   
    81   80   81 1   
    82   80   83 1   
    83   80   87 1   
    84   81   82 2   
    85   81   93 1   
    86   83   84 1   
    87   83   85 1   
    88   83   88 1   
    89   84   90 1   
    90   84   91 1   
    91   84   92 1   
    92   85   89 1   
    93   93   94 1   
    94   93  101 1   
    95   94   95 1   
    96   94   97 1   
    97   94  102 1   
    98   95   96 2   
    99   95  112 1   
   100   97   98 1   
   101   97   99 1   
   102   97  103 1   
   103   98  100 1   
   104   98  104 1   
   105   98  105 1   
   106   99  106 1   
   107   99  107 1   
   108   99  108 1   
   109  100  109 1   
   110  100  110 1   
   111  100  111 1   
   112  112  113 1   
   113  112  119 1   
   114  113  114 1   
   115  113  116 1   
   116  113  120 1   
   117  114  115 2   
   118  114  126 1   
   119  116  117 1   
   120  116  118 1   
   121  116  121 1   
   122  117  123 1   
   123  117  124 1   
   124  117  125 1   
   125  118  122 1   
   126  126  127 1   
   127  126  133 1   
   128  127  128 1   
   129  127  130 1   
   130  127  134 1   
   131  128  129 2   
   132  128  140 1   
   133  130  131 1   
   134  130  132 1   
   135  130  135 1   
   136  131  137 1   
   137  131  138 1   
   138  131  139 1   
   139  132  136 1   
   140  140  141 1   
   141  140  149 1   
   142  141  142 1   
   143  141  144 1   
   144  141  150 1   
   145  142  143 2   
   146  142  162 1   
   147  144  145 1   
   148  144  151 1   
   149  144  152 1   
   150  145  146 1   
   151  145  153 1   
   152  145  154 1   
   153  146  147 1   
   154  146  155 1   
   155  146  156 1   
   156  147  148 1   
   157  147  157 1   
   158  147  158 1   
   159  148  159 1   
   160  148  160 1   
   161  148  161 1   
   162  162  163 1   
   163  162  171 1   
   164  163  164 1   
   165  163  166 1   
   166  163  172 1   
   167  164  165 2   
   168  164  177 1   
   169  166  167 1   
   170  166  173 1   
   171  166  174 1   
   172  167  168 1   
   173  167  175 1   
   174  167  176 1   
   175  168  169 1   
   176  168  170 1   
   177  177  178 1   
   178  177  182 1   
   179  178  179 1   
   180  178  180 1   
   181  178  181 1   
   182  184  185 1   
   183  184  186 1   
   184  187  188 1   
   185  187  189 1   
@<TRIPOS>SUBSTRUCTURE
     1 MOL         1 TEMP              0 ****  ****    0 ROOT
