@<TRIPOS>MOLECULE
MOL
  186   183     1     0     0
SMALL
resp


@<TRIPOS>ATOM
      1 C1          0.3200   -1.3180    6.2360 c3        1 MOL     -0.325845
      2 C2          0.7300   -1.5590    4.7660 c         1 MOL      0.736608
      3 O1         -0.1420   -1.7220    3.9230 o         1 MOL     -0.582806
      4 H1          0.2610   -0.2460    6.4250 hc        1 MOL      0.072717
      5 H2         -0.6530   -1.7730    6.4230 hc        1 MOL      0.072717
      6 H3          1.0630   -1.7620    6.8980 hc        1 MOL      0.072717
      7 N1          1.9940   -1.5460    4.4560 n         1 MOL     -0.620066
      8 C3          2.5440   -1.6600    3.1060 c3        1 MOL      0.110374
      9 C4          2.7910   -3.1010    2.6900 c         1 MOL      0.523257
     10 O2          3.6270   -3.8360    3.2170 o         1 MOL     -0.611003
     11 C5          3.8070   -0.8330    3.0640 c3        1 MOL     -0.015825
     12 C6          4.4470   -0.6650    1.7160 c         1 MOL      0.742297
     13 O3          3.8400   -1.0980    0.6900 o         1 MOL     -0.702108
     14 O4          5.4960   -0.0040    1.7090 o         1 MOL     -0.702108
     15 H4          2.6030   -1.2200    5.1890 hn        1 MOL      0.306320
     16 H5          1.8480   -1.1650    2.4210 h1        1 MOL      0.056515
     17 H6          4.5630   -1.0720    3.8080 hc        1 MOL     -0.002344
     18 H7          3.4830    0.1740    3.3160 hc        1 MOL     -0.002344
     19 N2          2.1400   -3.5420    1.5990 n         1 MOL     -0.074038
     20 C7          2.1720   -4.9180    1.0170 c3        1 MOL     -0.156757
     21 C8          3.3600   -5.1460    0.1090 c         1 MOL      0.678150
     22 O5          3.7670   -6.2520   -0.0650 o         1 MOL     -0.584239
     23 C9          0.7780   -5.1240    0.3290 c3        1 MOL      0.258464
     24 C10        -0.3420   -4.8600    1.3540 c3        1 MOL      0.099603
     25 C11         0.6360   -6.5360   -0.3010 c3        1 MOL     -0.387346
     26 C12        -0.2290   -5.4740    2.7830 c3        1 MOL     -0.287435
     27 H8          1.8260   -2.7630    1.0400 hn        1 MOL      0.088440
     28 H9          2.1910   -5.7430    1.7290 h1        1 MOL      0.057359
     29 H10         0.6490   -4.3340   -0.4110 hc        1 MOL     -0.007604
     30 H11        -1.2990   -5.1970    0.9630 hc        1 MOL     -0.006828
     31 H12        -0.4040   -3.7700    1.4160 hc        1 MOL     -0.006828
     32 H13         1.4580   -6.6590   -0.9990 hc        1 MOL      0.082282
     33 H14         0.5680   -7.3010    0.4720 hc        1 MOL      0.082282
     34 H15        -0.2870   -6.5760   -0.8710 hc        1 MOL      0.082282
     35 H16        -1.2040   -5.2930    3.2290 hc        1 MOL      0.061103
     36 H17        -0.1590   -6.5540    2.7010 hc        1 MOL      0.061103
     37 H18         0.5210   -4.9370    3.3790 hc        1 MOL      0.061103
     38 N3          4.0320   -4.0760   -0.4700 n         1 MOL     -0.489622
     39 C13         5.0620   -4.1640   -1.5660 c3        1 MOL      0.042154
     40 C14         6.3530   -3.2740   -1.3600 c         1 MOL      0.485359
     41 O6          7.1750   -3.1710   -2.2190 o         1 MOL     -0.507806
     42 C15         4.4810   -4.1440   -2.9790 c3        1 MOL     -0.089219
     43 C16         3.6830   -2.8490   -3.3800 c         1 MOL      0.737115
     44 O7          3.1790   -2.7120   -4.4880 o         1 MOL     -0.718114
     45 O8          3.6180   -2.0010   -2.4670 o         1 MOL     -0.718114
     46 H19         3.7230   -3.1410   -0.2540 hn        1 MOL      0.151885
     47 H20         5.4940   -5.1660   -1.5450 h1        1 MOL      0.059935
     48 H21         3.8580   -5.0260   -3.1160 hc        1 MOL      0.016363
     49 H22         5.2820   -4.1890   -3.7190 hc        1 MOL      0.016363
     50 N4          6.4140   -2.6960   -0.1390 n         1 MOL     -0.291843
     51 C17         7.6690   -2.1470    0.4740 c3        1 MOL     -0.169775
     52 C18         8.2550   -0.9250   -0.1960 c         1 MOL      0.510016
     53 O9          9.4860   -0.7390   -0.2330 o         1 MOL     -0.616024
     54 H23         5.6050   -2.6500    0.4650 hn        1 MOL      0.226332
     55 H24         8.3500   -2.9930    0.4880 h1        1 MOL      0.101365
     56 H25         7.4200   -1.9760    1.5270 h1        1 MOL      0.101365
     57 N5          7.4090    0.0030   -0.6020 n         1 MOL     -0.068369
     58 C19         7.6880    1.3520   -1.2420 c3        1 MOL     -0.163925
     59 C20         7.5510    2.5720   -0.3430 c         1 MOL      0.424999
     60 O10         7.8400    3.7190   -0.7780 o         1 MOL     -0.537567
     61 C21         6.9440    1.3820   -2.6010 c3        1 MOL      0.017284
     62 C22         5.4420    1.2660   -2.6560 c         1 MOL      0.676009
     63 O11         5.0030    1.3500   -3.8300 o         1 MOL     -0.682238
     64 O12         4.6940    1.3320   -1.6520 o         1 MOL     -0.682238
     65 H26         6.4390   -0.1250   -0.3540 hn        1 MOL      0.035006
     66 H27         8.7440    1.2690   -1.5170 h1        1 MOL      0.121851
     67 H28         7.3980    0.5640   -3.1570 hc        1 MOL      0.017341
     68 H29         7.2330    2.3020   -3.1200 hc        1 MOL      0.017341
     69 N6          7.2040    2.4350    0.9500 n         1 MOL     -0.188028
     70 C23         6.8630    3.4480    1.8510 c3        1 MOL     -0.224828
     71 C24         5.5310    4.1140    1.4460 c         1 MOL      0.459343
     72 O13         5.2850    5.2540    1.8560 o         1 MOL     -0.567141
     73 H30         7.0510    1.4650    1.1740 hn        1 MOL      0.212715
     74 H31         7.7080    4.1290    1.9550 h1        1 MOL      0.118477
     75 H32         6.6120    2.9860    2.8030 h1        1 MOL      0.118477
     76 N7          4.5820    3.4900    0.7910 n         1 MOL     -0.168460
     77 C25         3.2700    3.9870    0.4810 c3        1 MOL      0.003809
     78 C26         2.1420    2.9170    0.7610 c         1 MOL      0.328165
     79 O14         2.3270    1.7210    0.5070 o         1 MOL     -0.512893
     80 C27         3.1620    4.4380   -0.9920 c3        1 MOL      0.130663
     81 C28         4.0750    5.6540   -1.4350 c3        1 MOL     -0.166556
     82 C29         4.0050    6.9020   -0.5980 c         1 MOL      0.612497
     83 N8          5.0540    7.7250   -0.7450 n         1 MOL     -0.779597
     84 O15         3.0220    7.2130    0.0380 o         1 MOL     -0.548280
     85 H33         4.9210    2.6660    0.3090 hn        1 MOL      0.212812
     86 H34         3.0950    4.8200    1.1540 h1        1 MOL      0.078627
     87 H35         2.1160    4.7320   -1.1140 hc        1 MOL     -0.035934
     88 H36         3.3560    3.5910   -1.6440 hc        1 MOL     -0.035934
     89 H37         3.9450    5.9130   -2.4850 hc        1 MOL      0.059055
     90 H38         5.1170    5.3250   -1.4340 hc        1 MOL      0.059055
     91 H39         5.7750    7.5020   -1.4130 hn        1 MOL      0.345617
     92 H40         5.0610    8.6100   -0.2580 hn        1 MOL      0.345617
     93 N9          0.9360    3.4440    1.1110 n         1 MOL     -0.304723
     94 C30        -0.2630    2.6020    1.4430 c3        1 MOL      0.002184
     95 C31        -1.4890    2.9770    0.6840 c         1 MOL      0.372938
     96 O16        -2.1280    4.0250    1.0160 o         1 MOL     -0.534855
     97 C32        -0.5800    2.5440    2.9360 c3        1 MOL      0.298059
     98 C33        -1.4480    1.3640    3.2640 c3        1 MOL     -0.329141
     99 C34         0.7050    2.4950    3.7900 c3        1 MOL     -0.329141
    100 H41         0.9190    4.3880    1.4600 hn        1 MOL      0.258625
    101 H42        -0.0140    1.5620    1.2080 h1        1 MOL      0.128110
    102 H43        -1.0900    3.4530    3.2590 hc        1 MOL     -0.038153
    103 H44        -1.7840    1.3570    4.3030 hc        1 MOL      0.071797
    104 H45        -2.3150    1.4740    2.6190 hc        1 MOL      0.071797
    105 H46        -0.8210    0.4810    3.1360 hc        1 MOL      0.071797
    106 H47         1.3430    1.6620    3.4770 hc        1 MOL      0.071797
    107 H48         1.2810    3.4100    3.8820 hc        1 MOL      0.071797
    108 H49         0.4760    2.4900    4.8570 hc        1 MOL      0.071797
    109 N10        -1.8950    2.1950   -0.3770 n         1 MOL     -0.230047
    110 C35        -3.0410    2.5220   -1.1930 c3        1 MOL      0.099970
    111 C36        -4.3190    2.2420   -0.3220 c         1 MOL      0.248475
    112 O17        -4.1940    1.5420    0.6380 o         1 MOL     -0.224231
    113 C37        -3.0880    1.5540   -2.3820 c3        1 MOL     -0.495917
    114 C38        -4.1170    1.9260   -3.4360 c         1 MOL      0.703946
    115 N11        -3.9440    2.9830   -4.1430 n         1 MOL     -0.764666
    116 O18        -5.1540    1.3200   -3.5800 o         1 MOL     -0.558328
    117 H50        -1.3660    1.4120   -0.7300 hn        1 MOL      0.200296
    118 H51        -2.9750    3.5450   -1.5600 h1        1 MOL      0.048677
    119 H52        -3.2940    0.5380   -2.0470 hc        1 MOL      0.191230
    120 H53        -2.1210    1.5870   -2.8940 hc        1 MOL      0.191230
    121 H54        -3.0420    3.4320   -4.1230 hn        1 MOL      0.358741
    122 H55        -4.6420    3.2280   -4.8220 hn        1 MOL      0.358741
    123 N12        -5.5330    2.5780   -0.7210 n         1 MOL     -0.434042
    124 C39        -6.7810    2.0210   -0.0850 c3        1 MOL      0.146264
    125 C40        -6.8570    0.4560   -0.2040 c         1 MOL      0.897494
    126 O19        -7.2970   -0.1280    0.7140 o         1 MOL     -0.597828
    127 C41        -7.9210    2.5620   -0.8940 c3        1 MOL     -0.147903
    128 C42        -9.2480    2.3080   -0.2470 ca        1 MOL      0.042596
    129 C43        -9.5350    2.9700    0.9740 ca        1 MOL     -0.288085
    130 C44       -10.2140    1.4310   -0.8310 ca        1 MOL     -0.288085
    131 C45       -10.7820    2.7320    1.6410 ca        1 MOL     -0.067119
    132 C46       -11.5260    1.3370   -0.2510 ca        1 MOL     -0.067119
    133 C47       -11.8030    2.0280    0.9740 ca        1 MOL      0.171189
    134 O20       -13.0440    2.0960    1.4960 oh        1 MOL     -0.482320
    135 H56        -5.6110    3.1590   -1.5500 hn        1 MOL      0.255199
    136 H57        -6.7620    2.2420    0.9870 h1        1 MOL      0.027840
    137 H58        -7.8880    2.1390   -1.9000 hc        1 MOL      0.060959
    138 H59        -7.7920    3.6450   -0.9520 hc        1 MOL      0.060959
    139 H60        -8.8550    3.7670    1.2300 ha        1 MOL      0.170107
    140 H61       -10.0080    0.8710   -1.7390 ha        1 MOL      0.170107
    141 H62       -10.9810    3.3720    2.4910 ha        1 MOL      0.096384
    142 H63       -12.3190    0.7810   -0.7320 ha        1 MOL      0.096384
    143 H64       -13.6550    1.9040    0.7780 ho        1 MOL      0.359496
    144 N13        -6.3410   -0.1920   -1.2800 n         1 MOL     -0.665124
    145 C48        -6.3750   -1.6060   -1.4740 c3        1 MOL      0.066664
    146 C49        -5.4470   -2.3040   -0.4010 c         1 MOL      0.266854
    147 O21        -5.6530   -3.4000    0.1270 o         1 MOL     -0.473749
    148 C50        -5.7830   -1.9610   -2.8020 c3        1 MOL      0.178722
    149 C51        -6.0920   -3.4200   -3.2380 c3        1 MOL     -0.154849
    150 C52        -7.5520   -3.5350   -3.4330 c         1 MOL      0.682864
    151 O22        -8.0790   -3.1810   -4.5590 o         1 MOL     -0.742091
    152 O23        -8.1520   -4.0100   -2.4340 o         1 MOL     -0.742091
    153 H65        -6.0180    0.4150   -2.0210 hn        1 MOL      0.291572
    154 H66        -7.4260   -1.8490   -1.3230 h1        1 MOL      0.140640
    155 H67        -4.7020   -1.8010   -2.7600 hc        1 MOL     -0.042232
    156 H68        -6.2410   -1.3450   -3.5790 hc        1 MOL     -0.042232
    157 H69        -5.6500   -4.0530   -2.4610 hc        1 MOL     -0.003344
    158 H70        -5.5430   -3.5770   -4.1630 hc        1 MOL     -0.003344
    159 N14        -4.5430   -1.5660    0.2620 n         1 MOL     -0.036452
    160 C53        -3.6840   -2.0090    1.3050 c3        1 MOL     -0.040707
    161 C54        -4.3000   -1.6860    2.6210 c         1 MOL      0.468430
    162 O24        -4.2080   -2.5700    3.4680 o         1 MOL     -0.561965
    163 C55        -2.2030   -1.4180    1.1330 c3        1 MOL     -0.116045
    164 C56        -1.5080   -1.8060   -0.2160 c3        1 MOL      0.111418
    165 C57        -0.2380   -1.1320   -0.3840 c         1 MOL      0.702517
    166 O25         0.8430   -1.7360   -0.2390 o         1 MOL     -0.747395
    167 O26        -0.1600    0.0290   -0.8010 o         1 MOL     -0.747395
    168 H71        -4.3170   -0.6390   -0.0730 hn        1 MOL      0.087937
    169 H72        -3.6150   -3.0940    1.2640 h1        1 MOL      0.083272
    170 H73        -1.5650   -1.7900    1.9320 hc        1 MOL      0.077793
    171 H74        -2.2430   -0.3300    1.1580 hc        1 MOL      0.077793
    172 H75        -2.1040   -1.6010   -1.0960 hc        1 MOL     -0.046036
    173 H76        -1.2510   -2.8630   -0.2670 hc        1 MOL     -0.046036
    174 N15        -4.9150   -0.5250    2.8210 n         1 MOL     -0.102487
    175 C58        -5.4810    0.0410    4.0200 c3        1 MOL     -0.135417
    176 H77        -5.0070    1.0010    4.2260 h1        1 MOL      0.058976
    177 H78        -6.5530    0.1860    3.8840 h1        1 MOL      0.058976
    178 H79        -5.3090   -0.6350    4.8580 h1        1 MOL      0.058976
    179 H80        -4.7720    0.1450    2.0720 hn        1 MOL      0.037366
    180 Ca1         2.5170   -0.0910   -1.3270 Ca        1 MOL      1.700623
    181 O27         2.4120    1.6420   -3.3470 oh        1 MOL     -0.846329
    182 H81         3.3630    1.6350   -3.3360 ho        1 MOL      0.403576
    183 H82         2.1860    2.0050   -4.2060 ho        1 MOL      0.403576
    184 O28         0.9540   -1.1060   -3.7140 oh        1 MOL     -0.846329
    185 H83         1.6480   -1.3900   -4.3130 ho        1 MOL      0.403576
    186 H84         0.5100   -1.9160   -3.4610 ho        1 MOL      0.403576
@<TRIPOS>BOND
     1    1    2 1   
     2    1    4 1   
     3    1    5 1   
     4    1    6 1   
     5    2    3 2   
     6    2    7 1   
     7    7    8 1   
     8    7   15 1   
     9    8    9 1   
    10    8   11 1   
    11    8   16 1   
    12    9   10 2   
    13    9   19 1   
    14   11   12 1   
    15   11   17 1   
    16   11   18 1   
    17   12   13 1   
    18   12   14 1   
    19   19   20 1   
    20   19   27 1   
    21   20   21 1   
    22   20   23 1   
    23   20   28 1   
    24   21   22 2   
    25   21   38 1   
    26   23   24 1   
    27   23   25 1   
    28   23   29 1   
    29   24   26 1   
    30   24   30 1   
    31   24   31 1   
    32   25   32 1   
    33   25   33 1   
    34   25   34 1   
    35   26   35 1   
    36   26   36 1   
    37   26   37 1   
    38   38   39 1   
    39   38   46 1   
    40   39   40 1   
    41   39   42 1   
    42   39   47 1   
    43   40   41 2   
    44   40   50 1   
    45   42   43 1   
    46   42   48 1   
    47   42   49 1   
    48   43   44 1   
    49   43   45 1   
    50   50   51 1   
    51   50   54 1   
    52   51   52 1   
    53   51   55 1   
    54   51   56 1   
    55   52   53 2   
    56   52   57 1   
    57   57   58 1   
    58   57   65 1   
    59   58   59 1   
    60   58   61 1   
    61   58   66 1   
    62   59   60 2   
    63   59   69 1   
    64   61   62 1   
    65   61   67 1   
    66   61   68 1   
    67   62   63 1   
    68   62   64 1   
    69   69   70 1   
    70   69   73 1   
    71   70   71 1   
    72   70   74 1   
    73   70   75 1   
    74   71   72 2   
    75   71   76 1   
    76   76   77 1   
    77   76   85 1   
    78   77   78 1   
    79   77   80 1   
    80   77   86 1   
    81   78   79 2   
    82   78   93 1   
    83   80   81 1   
    84   80   87 1   
    85   80   88 1   
    86   81   82 1   
    87   81   89 1   
    88   81   90 1   
    89   82   83 1   
    90   82   84 2   
    91   83   91 1   
    92   83   92 1   
    93   93   94 1   
    94   93  100 1   
    95   94   95 1   
    96   94   97 1   
    97   94  101 1   
    98   95   96 2   
    99   95  109 1   
   100   97   98 1   
   101   97   99 1   
   102   97  102 1   
   103   98  103 1   
   104   98  104 1   
   105   98  105 1   
   106   99  106 1   
   107   99  107 1   
   108   99  108 1   
   109  109  110 1   
   110  109  117 1   
   111  110  111 1   
   112  110  113 1   
   113  110  118 1   
   114  111  112 2   
   115  111  123 1   
   116  113  114 1   
   117  113  119 1   
   118  113  120 1   
   119  114  115 1   
   120  114  116 2   
   121  115  121 1   
   122  115  122 1   
   123  123  124 1   
   124  123  135 1   
   125  124  125 1   
   126  124  127 1   
   127  124  136 1   
   128  125  126 2   
   129  125  144 1   
   130  127  128 1   
   131  127  137 1   
   132  127  138 1   
   133  128  129 ar  
   134  128  130 ar  
   135  129  131 ar  
   136  129  139 1   
   137  130  132 ar  
   138  130  140 1   
   139  131  133 ar  
   140  131  141 1   
   141  132  133 ar  
   142  132  142 1   
   143  133  134 1   
   144  134  143 1   
   145  144  145 1   
   146  144  153 1   
   147  145  146 1   
   148  145  148 1   
   149  145  154 1   
   150  146  147 2   
   151  146  159 1   
   152  148  149 1   
   153  148  155 1   
   154  148  156 1   
   155  149  150 1   
   156  149  157 1   
   157  149  158 1   
   158  150  151 1   
   159  150  152 1   
   160  159  160 1   
   161  159  168 1   
   162  160  161 1   
   163  160  163 1   
   164  160  169 1   
   165  161  162 2   
   166  161  174 1   
   167  163  164 1   
   168  163  170 1   
   169  163  171 1   
   170  164  165 1   
   171  164  172 1   
   172  164  173 1   
   173  165  166 1   
   174  165  167 1   
   175  174  175 1   
   176  174  179 1   
   177  175  176 1   
   178  175  177 1   
   179  175  178 1   
   180  181  182 1   
   181  181  183 1   
   182  184  185 1   
   183  184  186 1   
@<TRIPOS>SUBSTRUCTURE
     1 MOL         1 TEMP              0 ****  ****    0 ROOT
