@<TRIPOS>MOLECULE
MOL
  175   173     1     0     0
SMALL
resp


@<TRIPOS>ATOM
      1 C1          0.3420    4.1830    5.2910 c3        1 MOL     -0.327277
      2 C2         -0.3050    4.0910    3.9300 c         1 MOL      0.718240
      3 O1          0.4370    4.0210    2.9180 o         1 MOL     -0.541800
      4 H1         -0.0250    3.3740    5.9220 hc        1 MOL      0.077832
      5 H2          1.4240    4.0980    5.1850 hc        1 MOL      0.077832
      6 H3          0.0950    5.1410    5.7480 hc        1 MOL      0.077832
      7 N1         -1.6510    4.1430    3.8140 n         1 MOL     -0.691999
      8 C3         -2.3060    3.8460    2.5720 c3        1 MOL      0.360972
      9 C4         -2.3020    4.9270    1.5130 c         1 MOL      0.514716
     10 O2         -2.3260    6.0700    1.9710 o         1 MOL     -0.561482
     11 C5         -3.7160    3.4000    2.8560 c3        1 MOL     -0.423910
     12 C6         -4.3750    2.5410    1.7530 c         1 MOL      0.820684
     13 O3         -5.6130    2.4230    1.7230 o         1 MOL     -0.730920
     14 O4         -3.7190    2.1700    0.7790 o         1 MOL     -0.730920
     15 H4         -2.1520    4.4100    4.6480 hn        1 MOL      0.337528
     16 H5         -1.8730    2.9650    2.0980 h1        1 MOL     -0.013894
     17 H6         -4.3450    4.2780    2.9680 hc        1 MOL      0.082635
     18 H7         -3.6670    2.8160    3.7710 hc        1 MOL      0.082635
     19 N2         -2.3510    4.5690    0.1960 n         1 MOL     -0.462032
     20 C7         -2.5870    5.4260   -0.8830 c3        1 MOL      0.239582
     21 C8         -3.4290    4.7840   -2.0880 c         1 MOL      0.460360
     22 O5         -3.6070    5.3620   -3.1470 o         1 MOL     -0.571745
     23 C9         -1.2360    6.0550   -1.4360 c3        1 MOL     -0.174146
     24 H8         -2.1470    3.5870    0.0570 hn        1 MOL      0.365702
     25 H9         -3.0370    6.3460   -0.5330 h1        1 MOL      0.012531
     26 H10        -0.6840    6.4390   -0.5790 hc        1 MOL      0.038894
     27 H11        -0.6390    5.2980   -1.9430 hc        1 MOL      0.038894
     28 H12        -1.5210    6.8020   -2.1850 hc        1 MOL      0.038894
     29 N3         -4.0980    3.6760   -1.9700 n         1 MOL     -0.321654
     30 C10        -4.9950    3.0340   -3.0190 c3        1 MOL      0.122783
     31 C11        -6.2210    2.2710   -2.4160 c         1 MOL      0.296796
     32 O6         -7.1480    1.9700   -3.1200 o         1 MOL     -0.520320
     33 C12        -4.1760    2.0480   -3.8950 c3        1 MOL     -0.100763
     34 C13        -3.2720    1.1620   -3.0830 c         1 MOL      0.737178
     35 O7         -3.6340    0.5940   -2.0440 o         1 MOL     -0.690586
     36 O8         -2.1710    0.9220   -3.5600 o         1 MOL     -0.690586
     37 H13        -4.0550    3.2540   -1.0480 hn        1 MOL      0.077532
     38 H14        -5.3980    3.8000   -3.6840 h1        1 MOL      0.071070
     39 H15        -3.5980    2.5950   -4.6280 hc        1 MOL      0.015600
     40 H16        -4.8830    1.3470   -4.3370 hc        1 MOL      0.015600
     41 N4         -6.2330    1.9740   -1.1230 n         1 MOL     -0.186448
     42 C14        -7.3470    1.2530   -0.5920 c3        1 MOL     -0.149651
     43 C15        -7.2670   -0.2400   -0.9500 c         1 MOL      0.358613
     44 O9         -8.2590   -0.9640   -0.7450 o         1 MOL     -0.584937
     45 H17        -5.5800    2.4260   -0.4950 hn        1 MOL      0.247693
     46 H18        -8.2690    1.7830   -0.8320 h1        1 MOL      0.109231
     47 H19        -7.3290    1.3110    0.4940 h1        1 MOL      0.109231
     48 N5         -6.1570   -0.6730   -1.6130 n         1 MOL     -0.145872
     49 C16        -6.1240   -2.0580   -2.1730 c3        1 MOL     -0.013384
     50 C17        -6.0410   -3.1380   -1.0900 c         1 MOL      0.345308
     51 O10        -5.9210   -4.3010   -1.4560 o         1 MOL     -0.531655
     52 C18        -4.9310   -2.1590   -3.1420 c3        1 MOL     -0.266999
     53 C19        -3.5820   -2.3700   -2.4430 c         1 MOL      0.478124
     54 N6         -2.6070   -2.5710   -3.2300 n         1 MOL     -0.583006
     55 O11        -3.4060   -2.2980   -1.1930 o         1 MOL     -0.263368
     56 H20        -5.3850   -0.0440   -1.7780 hn        1 MOL      0.259606
     57 H21        -7.0260   -2.1940   -2.7600 h1        1 MOL      0.115652
     58 H22        -4.8250   -1.3360   -3.8560 hc        1 MOL      0.074027
     59 H23        -5.1240   -3.1090   -3.6530 hc        1 MOL      0.074027
     60 H24        -2.7390   -2.5180   -4.2280 hn        1 MOL      0.329383
     61 H25        -1.6510   -2.5830   -2.8950 hn        1 MOL      0.329383
     62 N7         -6.0330   -2.8380    0.1500 n         1 MOL     -0.042046
     63 C20        -6.1760   -3.7270    1.3330 c3        1 MOL     -0.229516
     64 C21        -4.8810   -4.4580    1.7860 c         1 MOL      0.570818
     65 O12        -4.9380   -5.5160    2.5070 o         1 MOL     -0.597876
     66 H26        -5.9300   -1.8570    0.3570 hn        1 MOL      0.168374
     67 H27        -7.0320   -4.3620    1.1160 h1        1 MOL      0.094380
     68 H28        -6.4030   -2.9670    2.0870 h1        1 MOL      0.094380
     69 N8         -3.6750   -4.0680    1.3350 n         1 MOL     -0.122614
     70 C22        -2.3590   -4.5990    1.6170 c3        1 MOL     -0.507867
     71 C23        -1.3760   -3.4830    1.7630 c         1 MOL      0.772267
     72 O13        -1.4490   -2.4260    1.0400 o         1 MOL     -0.666437
     73 C24        -1.8080   -5.4490    0.5290 c3        1 MOL      0.576419
     74 C25        -2.5980   -6.7050    0.3970 c3        1 MOL     -0.463660
     75 O14        -2.0210   -4.8410   -0.7050 oh        1 MOL     -0.645683
     76 H29        -3.8140   -3.2080    0.8390 hn        1 MOL      0.124516
     77 H30        -2.3700   -5.1190    2.5780 h1        1 MOL      0.162273
     78 H31        -0.7480   -5.6720    0.6480 h1        1 MOL     -0.018213
     79 H32        -2.0750   -3.8790   -0.7430 ho        1 MOL      0.313903
     80 H33        -3.6680   -6.5110    0.3960 hc        1 MOL      0.117045
     81 H34        -2.4260   -7.2420   -0.5390 hc        1 MOL      0.117045
     82 H35        -2.2520   -7.4880    1.0740 hc        1 MOL      0.117045
     83 N9         -0.2980   -3.7710    2.5290 n         1 MOL     -0.626849
     84 C26         0.8710   -2.9040    2.3860 c3        1 MOL     -0.028399
     85 C27         1.4660   -3.0850    1.0510 c         1 MOL      0.692933
     86 O15         1.7770   -4.1850    0.5690 o         1 MOL     -0.613795
     87 C28         1.9080   -3.0250    3.5600 c3        1 MOL     -0.028103
     88 C29         1.3060   -2.1830    4.7420 c3        1 MOL      0.126856
     89 C30         3.2220   -2.2860    3.1500 c3        1 MOL     -0.106487
     90 C31         2.1410   -1.7720    5.9690 c3        1 MOL     -0.123937
     91 H36        -0.1590   -4.7300    2.7960 hn        1 MOL      0.333684
     92 H37         0.6310   -1.8400    2.3170 h1        1 MOL      0.101446
     93 H38         2.1060   -4.0680    3.8180 hc        1 MOL      0.043724
     94 H39         0.4200   -2.6770    5.1410 hc        1 MOL     -0.024560
     95 H40         0.8770   -1.2600    4.3480 hc        1 MOL     -0.024560
     96 H41         3.0290   -1.2790    2.8040 hc        1 MOL      0.001789
     97 H42         3.7890   -2.3100    4.0800 hc        1 MOL      0.001789
     98 H43         3.6890   -2.7740    2.2920 hc        1 MOL      0.001789
     99 H44         2.8390   -0.9520    5.8010 hc        1 MOL      0.024674
    100 H45         1.4380   -1.5440    6.7810 hc        1 MOL      0.024674
    101 H46         2.6910   -2.6710    6.2350 hc        1 MOL      0.024674
    102 N10         1.7390   -1.9460    0.3480 n         1 MOL     -0.276296
    103 C32         2.5540   -1.9810   -0.8980 c3        1 MOL      0.025672
    104 C33         3.9890   -1.5430   -0.6960 c         1 MOL      0.350142
    105 O16         4.2920   -1.0920    0.3840 o         1 MOL     -0.202445
    106 C34         1.8860   -1.0380   -1.9200 c3        1 MOL     -0.350859
    107 C35         0.4080   -1.4530   -2.3290 c         1 MOL      0.777079
    108 O17        -0.5250   -1.0990   -1.6010 o         1 MOL     -0.687446
    109 O18         0.2160   -2.1070   -3.3700 o         1 MOL     -0.687446
    110 H47         1.6190   -1.0540    0.7910 hn        1 MOL      0.220427
    111 H48         2.5140   -2.9820   -1.3170 h1        1 MOL      0.097712
    112 H49         2.5290   -0.8350   -2.7880 hc        1 MOL      0.088786
    113 H50         1.8410   -0.0460   -1.4760 hc        1 MOL      0.088786
    114 N11         4.9160   -1.6370   -1.7360 n         1 MOL     -0.585248
    115 C36         6.3840   -1.4460   -1.5060 c3        1 MOL      0.182726
    116 C37         6.6940   -0.0440   -1.0500 c         1 MOL      0.562591
    117 O19         7.3840    0.0520   -0.0070 o         1 MOL     -0.559933
    118 C38         7.1190   -1.7960   -2.7990 c3        1 MOL     -0.120208
    119 C39         8.6460   -1.6170   -2.7080 ca        1 MOL      0.030093
    120 C40         9.3210   -2.2310   -1.6510 ca        1 MOL     -0.153371
    121 C41         9.4160   -0.8590   -3.6850 ca        1 MOL     -0.153371
    122 C42        10.6980   -1.9820   -1.4670 ca        1 MOL     -0.112022
    123 C43        10.8170   -0.7140   -3.5400 ca        1 MOL     -0.112022
    124 C44        11.4470   -1.2000   -2.3870 ca        1 MOL     -0.088531
    125 H51         4.6660   -2.0100   -2.6440 hn        1 MOL      0.339767
    126 H52         6.7710   -2.0010   -0.6520 h1        1 MOL      0.063449
    127 H53         6.7780   -1.0480   -3.5120 hc        1 MOL      0.055700
    128 H54         6.7500   -2.7440   -3.2050 hc        1 MOL      0.055700
    129 H55         8.7390   -2.7690   -0.9160 ha        1 MOL      0.120090
    130 H56         8.9410   -0.5000   -4.5860 ha        1 MOL      0.120090
    131 H57        11.1710   -2.5330   -0.6690 ha        1 MOL      0.107682
    132 H58        11.4960   -0.2700   -4.2580 ha        1 MOL      0.107682
    133 H59        12.5320   -1.1340   -2.3230 ha        1 MOL      0.091642
    134 N12         6.3560    1.0920   -1.6990 n         1 MOL     -0.312157
    135 C45         6.6830    2.4570   -1.0770 c3        1 MOL      0.007816
    136 C46         5.8720    2.7310    0.2080 c         1 MOL      0.401973
    137 O20         6.2070    3.7790    0.7650 o         1 MOL     -0.529236
    138 C47         6.3670    3.4450   -2.2100 c3        1 MOL     -0.051987
    139 C48         5.2100    2.7250   -2.9470 c3        1 MOL     -0.017241
    140 C49         5.4250    1.2230   -2.7980 c3        1 MOL      0.064170
    141 H60         7.7360    2.5470   -0.8140 h1        1 MOL      0.090952
    142 H61         6.1830    4.4570   -1.8440 hc        1 MOL      0.045470
    143 H62         7.3040    3.5030   -2.7670 hc        1 MOL      0.045470
    144 H63         4.2870    2.9810   -2.4290 hc        1 MOL      0.020029
    145 H64         5.2130    2.9410   -4.0190 hc        1 MOL      0.020029
    146 H65         4.5250    0.6360   -2.6270 h1        1 MOL      0.017190
    147 H66         5.8550    0.7690   -3.6880 h1        1 MOL      0.017190
    148 N13         4.8580    1.9570    0.5590 n         1 MOL     -0.135659
    149 C50         4.1900    2.0340    1.8620 c3        1 MOL     -0.119055
    150 C51         4.9380    1.2800    2.9510 c         1 MOL      0.443173
    151 O21         5.0260    1.7210    4.1060 o         1 MOL     -0.566497
    152 C52         2.7570    1.5410    1.7220 c3        1 MOL      0.044403
    153 C53         1.8710    2.1380    0.6160 c3        1 MOL     -0.230363
    154 C54         0.4430    1.5080    0.5550 c         1 MOL      0.652316
    155 O22         0.1650    0.4290    1.1670 o         1 MOL     -0.749505
    156 O23        -0.5390    2.0260   -0.0890 o         1 MOL     -0.749505
    157 H67         4.7930    1.0660    0.0890 hn        1 MOL      0.167698
    158 H68         4.2510    3.0830    2.1450 h1        1 MOL      0.113312
    159 H69         2.2340    1.7570    2.6500 hc        1 MOL      0.042005
    160 H70         2.7480    0.4710    1.4920 hc        1 MOL      0.042005
    161 H71         2.2990    1.9110   -0.3580 hc        1 MOL      0.095205
    162 H72         1.7400    3.2020    0.7840 hc        1 MOL      0.095205
    163 N14         5.4920    0.1480    2.6080 n         1 MOL      0.033896
    164 C55         6.5240   -0.5070    3.4390 c3        1 MOL     -0.224658
    165 H73         6.0650   -0.9020    4.3450 h1        1 MOL      0.084017
    166 H74         6.9800   -1.3220    2.8770 h1        1 MOL      0.084017
    167 H75         7.2900    0.2210    3.7090 h1        1 MOL      0.084017
    168 H76         5.3700   -0.2180    1.6710 hn        1 MOL     -0.024293
    169 Ca1        -2.1760   -0.1630   -0.0940 Ca        1 MOL      1.667347
    170 O24        -2.0520    0.3200    2.7020 oh        1 MOL     -0.818499
    171 H77        -2.1680    0.6810    3.5850 ho        1 MOL      0.400623
    172 H78        -1.1280    0.4800    2.4990 ho        1 MOL      0.400623
    173 O25        -4.6250   -0.4600    0.9820 oh        1 MOL     -0.818499
    174 H79        -4.9650   -0.6080    1.8560 ho        1 MOL      0.400623
    175 H80        -4.9010    0.4370    0.7760 ho        1 MOL      0.400623
@<TRIPOS>BOND
     1    1    2 1   
     2    1    4 1   
     3    1    5 1   
     4    1    6 1   
     5    2    3 2   
     6    2    7 1   
     7    7    8 1   
     8    7   15 1   
     9    8    9 1   
    10    8   11 1   
    11    8   16 1   
    12    9   10 2   
    13    9   19 1   
    14   11   12 1   
    15   11   17 1   
    16   11   18 1   
    17   12   13 1   
    18   12   14 1   
    19   19   20 1   
    20   19   24 1   
    21   20   21 1   
    22   20   23 1   
    23   20   25 1   
    24   21   22 2   
    25   21   29 1   
    26   23   26 1   
    27   23   27 1   
    28   23   28 1   
    29   29   30 1   
    30   29   37 1   
    31   30   31 1   
    32   30   33 1   
    33   30   38 1   
    34   31   32 2   
    35   31   41 1   
    36   33   34 1   
    37   33   39 1   
    38   33   40 1   
    39   34   35 1   
    40   34   36 1   
    41   41   42 1   
    42   41   45 1   
    43   42   43 1   
    44   42   46 1   
    45   42   47 1   
    46   43   44 2   
    47   43   48 1   
    48   48   49 1   
    49   48   56 1   
    50   49   50 1   
    51   49   52 1   
    52   49   57 1   
    53   50   51 2   
    54   50   62 1   
    55   52   53 1   
    56   52   58 1   
    57   52   59 1   
    58   53   54 1   
    59   53   55 2   
    60   54   60 1   
    61   54   61 1   
    62   62   63 1   
    63   62   66 1   
    64   63   64 1   
    65   63   67 1   
    66   63   68 1   
    67   64   65 2   
    68   64   69 1   
    69   69   70 1   
    70   69   76 1   
    71   70   71 1   
    72   70   73 1   
    73   70   77 1   
    74   71   72 2   
    75   71   83 1   
    76   73   74 1   
    77   73   75 1   
    78   73   78 1   
    79   74   80 1   
    80   74   81 1   
    81   74   82 1   
    82   75   79 1   
    83   83   84 1   
    84   83   91 1   
    85   84   85 1   
    86   84   87 1   
    87   84   92 1   
    88   85   86 2   
    89   85  102 1   
    90   87   88 1   
    91   87   89 1   
    92   87   93 1   
    93   88   90 1   
    94   88   94 1   
    95   88   95 1   
    96   89   96 1   
    97   89   97 1   
    98   89   98 1   
    99   90   99 1   
   100   90  100 1   
   101   90  101 1   
   102  102  103 1   
   103  102  110 1   
   104  103  104 1   
   105  103  106 1   
   106  103  111 1   
   107  104  105 2   
   108  104  114 1   
   109  106  107 1   
   110  106  112 1   
   111  106  113 1   
   112  107  108 1   
   113  107  109 1   
   114  114  115 1   
   115  114  125 1   
   116  115  116 1   
   117  115  118 1   
   118  115  126 1   
   119  116  117 2   
   120  116  134 1   
   121  118  119 1   
   122  118  127 1   
   123  118  128 1   
   124  119  120 ar  
   125  119  121 ar  
   126  120  122 ar  
   127  120  129 1   
   128  121  123 ar  
   129  121  130 1   
   130  122  124 ar  
   131  122  131 1   
   132  123  124 ar  
   133  123  132 1   
   134  124  133 1   
   135  134  135 1   
   136  134  140 1   
   137  135  136 1   
   138  135  138 1   
   139  135  141 1   
   140  136  137 2   
   141  136  148 1   
   142  138  139 1   
   143  138  142 1   
   144  138  143 1   
   145  139  140 1   
   146  139  144 1   
   147  139  145 1   
   148  140  146 1   
   149  140  147 1   
   150  148  149 1   
   151  148  157 1   
   152  149  150 1   
   153  149  152 1   
   154  149  158 1   
   155  150  151 2   
   156  150  163 1   
   157  152  153 1   
   158  152  159 1   
   159  152  160 1   
   160  153  154 1   
   161  153  161 1   
   162  153  162 1   
   163  154  155 1   
   164  154  156 1   
   165  163  164 1   
   166  163  168 1   
   167  164  165 1   
   168  164  166 1   
   169  164  167 1   
   170  170  171 1   
   171  170  172 1   
   172  173  174 1   
   173  173  175 1   
@<TRIPOS>SUBSTRUCTURE
     1 MOL         1 TEMP              0 ****  ****    0 ROOT
