@<TRIPOS>MOLECULE
MOL
  179   176     1     0     0
SMALL
resp


@<TRIPOS>ATOM
      1 C1          2.8590    2.7390    4.3070 c3        1 MOL     -0.125626
      2 C2          1.9480    2.6870    3.0960 c         1 MOL      0.556846
      3 O1          2.5120    2.8810    2.0380 o         1 MOL     -0.613775
      4 H1          3.8680    3.0060    3.9910 hc        1 MOL      0.031671
      5 H2          2.4900    3.4860    5.0090 hc        1 MOL      0.031671
      6 H3          2.8770    1.7630    4.7910 hc        1 MOL      0.031671
      7 N1          0.6260    2.4930    3.2590 n         1 MOL     -0.467497
      8 C3         -0.3610    2.4590    2.1500 c3        1 MOL      0.121673
      9 C4         -0.8050    3.8190    1.7390 c         1 MOL      0.452677
     10 O2         -1.8250    4.3800    2.1720 o         1 MOL     -0.462353
     11 C5         -1.5630    1.6770    2.6510 c3        1 MOL     -0.232010
     12 C6         -2.6120    1.5630    1.5270 c         1 MOL      0.543073
     13 O3         -3.8050    1.3460    1.8370 o         1 MOL     -0.632542
     14 O4         -2.2810    1.6690    0.3380 o         1 MOL     -0.632542
     15 H4          0.4200    2.2580    4.2240 hn        1 MOL      0.289947
     16 H5          0.0750    1.9100    1.3160 h1        1 MOL      0.092725
     17 H6         -1.9500    2.1050    3.5730 hc        1 MOL      0.087709
     18 H7         -1.2230    0.6450    2.7700 hc        1 MOL      0.087709
     19 N2          0.0110    4.5120    0.8840 n         1 MOL     -0.403839
     20 C7         -0.2030    5.9020    0.4190 c3        1 MOL      0.011344
     21 C8         -1.2570    6.0600   -0.6840 c         1 MOL      0.371930
     22 O5         -1.9970    7.0530   -0.7190 o         1 MOL     -0.499525
     23 C9          1.1300    6.5840   -0.0130 c3        1 MOL      0.003252
     24 C10         2.2720    6.5300    0.9840 c3        1 MOL      0.009131
     25 C11         3.4120    7.5090    0.5170 c3        1 MOL      0.136623
     26 C12         4.7150    7.7050    1.3580 c3        1 MOL     -0.123509
     27 N3          5.1120    6.4170    1.9490 n4        1 MOL     -0.257105
     28 H8          0.8200    4.0310    0.5430 hn        1 MOL      0.269568
     29 H9         -0.6170    6.3890    1.3130 h1        1 MOL      0.094147
     30 H10         0.9390    7.6400   -0.2430 hc        1 MOL      0.015025
     31 H11         1.4190    6.1470   -0.9680 hc        1 MOL      0.015025
     32 H12         2.6820    5.5300    1.1370 hc        1 MOL      0.006115
     33 H13         1.9180    6.9410    1.9340 hc        1 MOL      0.006115
     34 H14         2.9930    8.5150    0.4370 hc        1 MOL      0.002523
     35 H15         3.7010    7.2060   -0.4830 hc        1 MOL      0.002523
     36 H16         4.4220    8.3770    2.1550 hx        1 MOL      0.111424
     37 H17         5.5190    8.0620    0.7040 hx        1 MOL      0.111424
     38 H18         4.8810    5.6370    1.3410 hn        1 MOL      0.312520
     39 H19         6.1140    6.4010    2.0650 hn        1 MOL      0.312520
     40 H20         4.7520    6.2910    2.8780 hn        1 MOL      0.312520
     41 N4         -1.2990    5.1760   -1.6640 n         1 MOL     -0.317515
     42 C13        -2.4750    5.0430   -2.5890 c3        1 MOL      0.050170
     43 C14        -3.8190    4.6660   -1.9240 c         1 MOL      0.426988
     44 O6         -4.9000    4.9810   -2.4240 o         1 MOL     -0.569650
     45 C15        -2.2440    3.9160   -3.5890 c3        1 MOL     -0.206743
     46 C16        -1.9640    2.5430   -2.9630 c         1 MOL      0.817319
     47 O7         -2.8660    1.8830   -2.3800 o         1 MOL     -0.762519
     48 O8         -0.8200    2.0460   -3.0790 o         1 MOL     -0.762519
     49 H21        -0.5000    4.5550   -1.7410 hn        1 MOL      0.289555
     50 H22        -2.7530    5.9360   -3.1560 h1        1 MOL      0.081925
     51 H23        -1.2730    4.1550   -4.0430 hc        1 MOL      0.044909
     52 H24        -2.9990    3.8970   -4.3680 hc        1 MOL      0.044909
     53 N5         -3.7580    4.1300   -0.7610 n         1 MOL      0.069836
     54 C17        -4.9050    3.9720    0.1090 c3        1 MOL     -0.280026
     55 C18        -5.7890    2.7430   -0.1310 c         1 MOL      0.609751
     56 O9         -6.9720    2.8690    0.3090 o         1 MOL     -0.563247
     57 H25        -2.8330    3.8220   -0.5040 hn        1 MOL      0.058950
     58 H26        -5.4000    4.9340    0.0290 h1        1 MOL      0.128678
     59 H27        -4.5700    3.9180    1.1460 h1        1 MOL      0.128678
     60 N6         -5.3290    1.6860   -0.9350 n         1 MOL     -0.263760
     61 C19        -6.2110    0.5930   -1.2110 c3        1 MOL     -0.086967
     62 C20        -6.4910   -0.3740   -0.0020 c         1 MOL      0.283126
     63 O10        -7.3290   -1.2700   -0.1980 o         1 MOL     -0.473778
     64 C21        -5.8830   -0.1700   -2.5430 c3        1 MOL     -0.103877
     65 C22        -4.6320   -1.0270   -2.4640 c         1 MOL      0.580400
     66 N7         -4.4540   -1.9100   -3.3980 n         1 MOL     -0.695624
     67 O11        -3.8080   -1.0430   -1.5250 o         1 MOL     -0.370333
     68 H28        -4.3790    1.7030   -1.2810 hn        1 MOL      0.119425
     69 H29        -7.1750    1.0670   -1.3780 h1        1 MOL      0.119737
     70 H30        -5.8880    0.5680   -3.3420 hc        1 MOL      0.076769
     71 H31        -6.7040   -0.8200   -2.8310 hc        1 MOL      0.076769
     72 H32        -5.0770   -1.9230   -4.1900 hn        1 MOL      0.338506
     73 H33        -3.6940   -2.5590   -3.2260 hn        1 MOL      0.338506
     74 N8         -5.8910   -0.1840    1.1930 n         1 MOL     -0.087947
     75 C23        -5.9480   -1.1290    2.3100 c3        1 MOL     -0.463904
     76 C24        -4.9510   -2.2640    2.2670 c         1 MOL      0.582772
     77 O12        -5.1920   -3.1840    3.0690 o         1 MOL     -0.571588
     78 H34        -5.3640    0.6740    1.3150 hn        1 MOL      0.258916
     79 H35        -6.8790   -1.7010    2.2530 h1        1 MOL      0.187390
     80 H36        -5.9750   -0.6500    3.2860 h1        1 MOL      0.187390
     81 N9         -3.9720   -2.3070    1.3920 n         1 MOL      0.036253
     82 C25        -2.8970   -3.2530    1.4550 c3        1 MOL     -0.349553
     83 C26        -1.5310   -2.5900    1.1960 c         1 MOL      0.758900
     84 O13        -1.5040   -1.6270    0.5040 o         1 MOL     -0.660876
     85 C27        -3.1570   -4.1820    0.2000 c3        1 MOL      0.433160
     86 C28        -4.5360   -4.8390    0.2840 ca        1 MOL     -0.435581
     87 C29        -5.6400   -4.4880   -0.5480 ca        1 MOL      0.101130
     88 C30        -4.7230   -5.8040    1.2920 ca        1 MOL      0.101130
     89 C31        -6.8550   -5.1640   -0.4360 ca        1 MOL     -0.379014
     90 C32        -6.0000   -6.4510    1.3680 ca        1 MOL     -0.379014
     91 C33        -7.0730   -6.1670    0.5220 ca        1 MOL      0.475048
     92 O14        -8.2410   -6.7960    0.6380 oh        1 MOL     -0.491547
     93 H37        -3.8940   -1.6250    0.6510 hn        1 MOL      0.010348
     94 H38        -2.8270   -3.7930    2.4020 h1        1 MOL      0.097486
     95 H39        -2.3200   -4.8760    0.0900 hc        1 MOL     -0.078720
     96 H40        -3.1430   -3.5810   -0.7110 hc        1 MOL     -0.078720
     97 H41        -5.4680   -3.7110   -1.2810 ha        1 MOL      0.063794
     98 H42        -3.8500   -6.1780    1.8060 ha        1 MOL      0.063794
     99 H43        -7.6550   -4.8570   -1.0940 ha        1 MOL      0.147214
    100 H44        -6.2210   -7.2130    2.1050 ha        1 MOL      0.147214
    101 H45        -8.2210   -7.5310    1.2590 ho        1 MOL      0.355616
    102 N10        -0.5120   -3.1960    1.7920 n         1 MOL     -0.500677
    103 C34         0.8530   -2.8170    1.7010 c3        1 MOL      0.032673
    104 C35         1.6300   -3.8040    0.7800 c         1 MOL      0.345992
    105 O15         1.6780   -5.0110    1.0630 o         1 MOL     -0.525885
    106 C36         1.5120   -2.7490    3.1260 c3        1 MOL      0.198735
    107 C37         0.8550   -1.6820    4.0430 c3        1 MOL      0.160139
    108 C38         2.9960   -2.4050    3.1150 c3        1 MOL     -0.293927
    109 C39         1.2100   -1.7850    5.5500 c3        1 MOL     -0.122864
    110 H46        -0.7260   -3.9090    2.4680 hn        1 MOL      0.306076
    111 H47         0.8360   -1.8310    1.2490 h1        1 MOL      0.085310
    112 H48         1.3420   -3.7120    3.6050 hc        1 MOL     -0.007906
    113 H49        -0.2250   -1.8300    3.9400 hc        1 MOL     -0.066971
    114 H50         0.9680   -0.6580    3.6860 hc        1 MOL     -0.066971
    115 H51         3.1380   -1.4070    2.6960 hc        1 MOL      0.055655
    116 H52         3.3440   -2.4950    4.1360 hc        1 MOL      0.055655
    117 H53         3.6280   -3.1240    2.5890 hc        1 MOL      0.055655
    118 H54         2.2070   -1.5010    5.8780 hc        1 MOL      0.027333
    119 H55         0.4880   -1.2020    6.1260 hc        1 MOL      0.027333
    120 H56         1.1330   -2.8390    5.8250 hc        1 MOL      0.027333
    121 N11         2.2920   -3.2070   -0.2160 n         1 MOL     -0.089871
    122 C40         3.1670   -3.9860   -1.1310 c3        1 MOL     -0.023114
    123 C41         4.7160   -3.8710   -0.7800 c         1 MOL      0.428800
    124 O16         5.0960   -3.1370    0.1220 o         1 MOL     -0.382020
    125 C42         2.9220   -3.4310   -2.5360 c3        1 MOL      0.039642
    126 O17         3.2290   -1.9950   -2.5910 oh        1 MOL     -0.607993
    127 H57         2.1450   -2.2200   -0.3680 hn        1 MOL      0.235024
    128 H58         2.9670   -5.0540   -1.1320 h1        1 MOL      0.052170
    129 H59         1.8460   -3.5380   -2.6370 h1        1 MOL      0.054533
    130 H60         3.4460   -4.0300   -3.2720 h1        1 MOL      0.054533
    131 H61         2.5470   -1.4350   -2.2130 ho        1 MOL      0.374073
    132 N12         5.6270   -4.6790   -1.4160 n         1 MOL     -0.422576
    133 C43         7.0170   -4.6130   -0.9260 c3        1 MOL      0.131157
    134 C44         7.6390   -3.2380   -1.2900 c         1 MOL      0.385379
    135 O18         8.3390   -2.6300   -0.4590 o         1 MOL     -0.499408
    136 C45         7.8670   -5.6920   -1.6150 c3        1 MOL     -0.289381
    137 H62         5.3540   -5.3950   -2.0810 hn        1 MOL      0.298497
    138 H63         7.0580   -4.7860    0.1510 h1        1 MOL      0.099833
    139 H64         8.9230   -5.5490   -1.3940 hc        1 MOL      0.086180
    140 H65         7.4300   -6.6700   -1.4300 hc        1 MOL      0.086180
    141 H66         7.7700   -5.6300   -2.7040 hc        1 MOL      0.086180
    142 N13         7.3430   -2.6460   -2.4360 n         1 MOL     -0.240204
    143 C46         7.6000   -1.2760   -2.7900 c3        1 MOL      0.063929
    144 C47         7.1030   -0.1740   -1.7820 c         1 MOL      0.339896
    145 O19         7.9100    0.7480   -1.4710 o         1 MOL     -0.512803
    146 C48         6.9490   -0.9790   -4.1820 c3        1 MOL     -0.347655
    147 H67         6.9080   -3.2500   -3.1260 hn        1 MOL      0.218644
    148 H68         8.6700   -1.1780   -2.9330 h1        1 MOL      0.089345
    149 H69         5.8990   -1.3000   -4.2150 hc        1 MOL      0.100686
    150 H70         6.9490    0.0880   -4.3740 hc        1 MOL      0.100686
    151 H71         7.4740   -1.4990   -4.9850 hc        1 MOL      0.100686
    152 N14         6.0040   -0.3920   -1.0330 n         1 MOL      0.085413
    153 C49         5.5200    0.5740   -0.0330 c3        1 MOL     -0.240808
    154 C50         6.3040    0.3450    1.3040 c         1 MOL      0.489993
    155 O20         6.7710    1.3080    1.9100 o         1 MOL     -0.584773
    156 C51         4.0270    0.4340    0.1690 c3        1 MOL      0.105405
    157 C52         3.1770    1.0230   -0.9370 c3        1 MOL     -0.161900
    158 C53         1.7330    0.5800   -0.8410 c         1 MOL      0.882718
    159 O21         0.7900    1.3960   -0.7260 o         1 MOL     -0.819021
    160 O22         1.3190   -0.5180   -1.1830 o         1 MOL     -0.819021
    161 H72         5.5480   -1.2770   -1.2020 hn        1 MOL      0.042878
    162 H73         5.7910    1.5700   -0.4000 h1        1 MOL      0.129530
    163 H74         3.6120    0.7770    1.1100 hc        1 MOL     -0.005606
    164 H75         3.7610   -0.6230    0.1960 hc        1 MOL     -0.005606
    165 H76         3.6920    0.8430   -1.8850 hc        1 MOL      0.029025
    166 H77         3.3030    2.1060   -0.8950 hc        1 MOL      0.029025
    167 N15         6.4600   -0.8760    1.7160 n         1 MOL     -0.029625
    168 C54         7.2620   -1.3090    2.8610 c3        1 MOL     -0.417043
    169 H78         8.2990   -1.0030    2.7140 h1        1 MOL      0.146826
    170 H79         6.8750   -0.8520    3.7720 h1        1 MOL      0.146826
    171 H80         7.2140   -2.3940    2.9500 h1        1 MOL      0.146826
    172 H81         6.1590   -1.5860    1.0650 hn        1 MOL      0.105409
    173 Ca1        -1.3960    0.0690   -1.5260 Ca        1 MOL      1.767054
    174 O23        -1.9000   -0.2840   -4.4790 oh        1 MOL     -0.857402
    175 H82        -1.5020   -0.9140   -5.0760 ho        1 MOL      0.411836
    176 H83        -1.7330    0.5710   -4.8860 ho        1 MOL      0.411836
    177 O24        -1.0590   -2.3740   -2.4490 oh        1 MOL     -0.857402
    178 H84        -0.7920   -3.2900   -2.2990 ho        1 MOL      0.411836
    179 H85        -1.0620   -2.2820   -3.4040 ho        1 MOL      0.411836
@<TRIPOS>BOND
     1    1    2 1   
     2    1    4 1   
     3    1    5 1   
     4    1    6 1   
     5    2    3 2   
     6    2    7 1   
     7    7    8 1   
     8    7   15 1   
     9    8    9 1   
    10    8   11 1   
    11    8   16 1   
    12    9   10 2   
    13    9   19 1   
    14   11   12 1   
    15   11   17 1   
    16   11   18 1   
    17   12   13 1   
    18   12   14 1   
    19   19   20 1   
    20   19   28 1   
    21   20   21 1   
    22   20   23 1   
    23   20   29 1   
    24   21   22 2   
    25   21   41 1   
    26   23   24 1   
    27   23   30 1   
    28   23   31 1   
    29   24   25 1   
    30   24   32 1   
    31   24   33 1   
    32   25   26 1   
    33   25   34 1   
    34   25   35 1   
    35   26   27 1   
    36   26   36 1   
    37   26   37 1   
    38   27   38 1   
    39   27   39 1   
    40   27   40 1   
    41   41   42 1   
    42   41   49 1   
    43   42   43 1   
    44   42   45 1   
    45   42   50 1   
    46   43   44 2   
    47   43   53 1   
    48   45   46 1   
    49   45   51 1   
    50   45   52 1   
    51   46   47 1   
    52   46   48 1   
    53   53   54 1   
    54   53   57 1   
    55   54   55 1   
    56   54   58 1   
    57   54   59 1   
    58   55   56 2   
    59   55   60 1   
    60   60   61 1   
    61   60   68 1   
    62   61   62 1   
    63   61   64 1   
    64   61   69 1   
    65   62   63 2   
    66   62   74 1   
    67   64   65 1   
    68   64   70 1   
    69   64   71 1   
    70   65   66 1   
    71   65   67 2   
    72   66   72 1   
    73   66   73 1   
    74   74   75 1   
    75   74   78 1   
    76   75   76 1   
    77   75   79 1   
    78   75   80 1   
    79   76   77 2   
    80   76   81 1   
    81   81   82 1   
    82   81   93 1   
    83   82   83 1   
    84   82   85 1   
    85   82   94 1   
    86   83   84 2   
    87   83  102 1   
    88   85   86 1   
    89   85   95 1   
    90   85   96 1   
    91   86   87 ar  
    92   86   88 ar  
    93   87   89 ar  
    94   87   97 1   
    95   88   90 ar  
    96   88   98 1   
    97   89   91 ar  
    98   89   99 1   
    99   90   91 ar  
   100   90  100 1   
   101   91   92 1   
   102   92  101 1   
   103  102  103 1   
   104  102  110 1   
   105  103  104 1   
   106  103  106 1   
   107  103  111 1   
   108  104  105 2   
   109  104  121 1   
   110  106  107 1   
   111  106  108 1   
   112  106  112 1   
   113  107  109 1   
   114  107  113 1   
   115  107  114 1   
   116  108  115 1   
   117  108  116 1   
   118  108  117 1   
   119  109  118 1   
   120  109  119 1   
   121  109  120 1   
   122  121  122 1   
   123  121  127 1   
   124  122  123 1   
   125  122  125 1   
   126  122  128 1   
   127  123  124 2   
   128  123  132 1   
   129  125  126 1   
   130  125  129 1   
   131  125  130 1   
   132  126  131 1   
   133  132  133 1   
   134  132  137 1   
   135  133  134 1   
   136  133  136 1   
   137  133  138 1   
   138  134  135 2   
   139  134  142 1   
   140  136  139 1   
   141  136  140 1   
   142  136  141 1   
   143  142  143 1   
   144  142  147 1   
   145  143  144 1   
   146  143  146 1   
   147  143  148 1   
   148  144  145 2   
   149  144  152 1   
   150  146  149 1   
   151  146  150 1   
   152  146  151 1   
   153  152  153 1   
   154  152  161 1   
   155  153  154 1   
   156  153  156 1   
   157  153  162 1   
   158  154  155 2   
   159  154  167 1   
   160  156  157 1   
   161  156  163 1   
   162  156  164 1   
   163  157  158 1   
   164  157  165 1   
   165  157  166 1   
   166  158  159 1   
   167  158  160 1   
   168  167  168 1   
   169  167  172 1   
   170  168  169 1   
   171  168  170 1   
   172  168  171 1   
   173  174  175 1   
   174  174  176 1   
   175  177  178 1   
   176  177  179 1   
@<TRIPOS>SUBSTRUCTURE
     1 MOL         1 TEMP              0 ****  ****    0 ROOT
