@<TRIPOS>MOLECULE
MOL
  172   171     1     0     0
SMALL
resp


@<TRIPOS>ATOM
      1 C1         -0.2860    4.4310    5.5170 c3        1 MOL     -0.489466
      2 C2         -0.7530    4.0970    4.1360 c         1 MOL      0.769977
      3 O1          0.0670    3.9850    3.2470 o         1 MOL     -0.578445
      4 H1          0.3730    5.2990    5.4780 hc        1 MOL      0.120700
      5 H2         -1.1470    4.6570    6.1480 hc        1 MOL      0.120700
      6 H3          0.2560    3.5820    5.9330 hc        1 MOL      0.120700
      7 N1         -2.0590    3.9200    3.8550 n         1 MOL     -0.678293
      8 C3         -2.6170    3.4720    2.5890 c3        1 MOL      0.432238
      9 C4         -2.8170    4.6330    1.5770 c         1 MOL      0.438276
     10 O2         -3.1650    5.7310    1.9990 o         1 MOL     -0.578416
     11 C5         -3.9000    2.6810    2.8910 c3        1 MOL     -0.327625
     12 C6         -4.5920    2.3420    1.6150 c         1 MOL      0.757319
     13 O3         -3.9110    1.8020    0.7180 o         1 MOL     -0.675967
     14 O4         -5.7990    2.7120    1.5430 o         1 MOL     -0.675967
     15 H4         -2.6730    4.0990    4.6340 hn        1 MOL      0.310600
     16 H5         -1.9040    2.8120    2.0880 h1        1 MOL     -0.027403
     17 H6         -4.4760    3.2800    3.5930 hc        1 MOL      0.035309
     18 H7         -3.5410    1.7380    3.2800 hc        1 MOL      0.035309
     19 N2         -2.5710    4.4270    0.3060 n         1 MOL     -0.350274
     20 C7         -2.8380    5.3860   -0.7700 c3        1 MOL      0.371380
     21 C8         -3.9390    4.9770   -1.7120 c         1 MOL      0.352325
     22 O5         -4.2340    5.7240   -2.6890 o         1 MOL     -0.581688
     23 C9         -1.4530    5.7870   -1.4240 c3        1 MOL     -0.363165
     24 H8         -2.3580    3.4530    0.1540 hn        1 MOL      0.249026
     25 H9         -3.2720    6.2220   -0.2330 h1        1 MOL     -0.006946
     26 H10        -1.4980    6.7030   -2.0190 hc        1 MOL      0.093283
     27 H11        -0.7180    5.8980   -0.6240 hc        1 MOL      0.093283
     28 H12        -1.1230    4.9540   -2.0500 hc        1 MOL      0.093283
     29 N3         -4.4350    3.7570   -1.6200 n         1 MOL     -0.181998
     30 C10        -5.3870    3.1640   -2.6200 c3        1 MOL      0.029715
     31 C11        -6.5670    2.2840   -2.0540 c         1 MOL      0.341739
     32 O6         -7.5580    2.0970   -2.7580 o         1 MOL     -0.558018
     33 C12        -4.5390    2.3140   -3.5940 c3        1 MOL     -0.180720
     34 C13        -3.6780    1.2180   -2.9230 c         1 MOL      0.788732
     35 O7         -4.1840    0.3640   -2.1910 o         1 MOL     -0.742780
     36 O8         -2.4550    1.2470   -3.0220 o         1 MOL     -0.742780
     37 H13        -4.1080    3.2880   -0.7920 hn        1 MOL      0.072429
     38 H14        -5.7810    4.0540   -3.1180 h1        1 MOL      0.099708
     39 H15        -3.9000    2.9810   -4.1710 hc        1 MOL      0.047798
     40 H16        -5.1490    1.7760   -4.3260 hc        1 MOL      0.047798
     41 N4         -6.3940    1.6880   -0.9010 n         1 MOL     -0.065221
     42 C14        -7.3730    0.7820   -0.2130 c3        1 MOL     -0.240921
     43 C15        -7.4000   -0.6890   -0.5550 c         1 MOL      0.538551
     44 O9         -8.3090   -1.3600   -0.0820 o         1 MOL     -0.630115
     45 H17        -5.4960    1.7560   -0.4550 hn        1 MOL      0.154804
     46 H18        -8.3710    1.1990   -0.3600 h1        1 MOL      0.120130
     47 H19        -7.1340    0.6820    0.8510 h1        1 MOL      0.120130
     48 N5         -6.3500   -1.1780   -1.1820 n         1 MOL     -0.245406
     49 C16        -6.2000   -2.5460   -1.7770 c3        1 MOL     -0.080472
     50 C17        -6.0700   -3.7350   -0.7070 c         1 MOL      0.484871
     51 O10        -6.0790   -4.9190   -1.0920 o         1 MOL     -0.542776
     52 C18        -5.0210   -2.6220   -2.7660 c3        1 MOL     -0.022175
     53 C19        -3.5760   -2.4860   -2.2420 c         1 MOL      0.517408
     54 N6         -2.5720   -2.3870   -3.1200 n         1 MOL     -0.669387
     55 O11        -3.3370   -2.3460   -1.0560 o         1 MOL     -0.425660
     56 H20        -5.6360   -0.4860   -1.3600 hn        1 MOL      0.219276
     57 H21        -7.1590   -2.8160   -2.2340 h1        1 MOL      0.103871
     58 H22        -5.2070   -1.8400   -3.4970 hc        1 MOL      0.027524
     59 H23        -5.1680   -3.5600   -3.3100 hc        1 MOL      0.027524
     60 H24        -2.7610   -2.4220   -4.1160 hn        1 MOL      0.340253
     61 H25        -1.6160   -2.2860   -2.8060 hn        1 MOL      0.340253
     62 N7         -6.0110   -3.3660    0.5680 n         1 MOL     -0.218257
     63 C20        -5.8810   -4.2390    1.6400 c3        1 MOL     -0.412270
     64 C21        -4.4760   -4.5950    2.0700 c         1 MOL      0.550943
     65 O12        -4.2640   -5.3180    3.0540 o         1 MOL     -0.579386
     66 H26        -6.1750   -2.3920    0.7910 hn        1 MOL      0.315196
     67 H27        -6.4790   -5.1420    1.4670 h1        1 MOL      0.161682
     68 H28        -6.3060   -3.7190    2.4930 h1        1 MOL      0.161682
     69 N8         -3.4550   -4.0480    1.4140 n         1 MOL     -0.136896
     70 C22        -2.0540   -4.4200    1.4870 c3        1 MOL     -0.420222
     71 C23        -0.9960   -3.2580    1.4800 c         1 MOL      0.628199
     72 O13        -1.2020   -2.2810    0.7700 o         1 MOL     -0.553703
     73 C24        -1.7070   -5.3360    0.2900 c3        1 MOL      0.630249
     74 C25        -2.3450   -6.7230    0.4120 c3        1 MOL     -0.681240
     75 O14        -2.0140   -4.7830   -0.9660 oh        1 MOL     -0.527370
     76 H29        -3.6090   -3.3820    0.6740 hn        1 MOL      0.203336
     77 H30        -1.8490   -4.8720    2.4640 h1        1 MOL      0.137089
     78 H31        -0.6150   -5.4030    0.2890 h1        1 MOL     -0.072084
     79 H32        -2.2840   -3.8920   -0.7450 ho        1 MOL      0.208829
     80 H33        -1.8910   -7.4130   -0.3020 hc        1 MOL      0.172393
     81 H34        -2.3020   -6.9730    1.4720 hc        1 MOL      0.172393
     82 H35        -3.3940   -6.7760    0.1220 hc        1 MOL      0.172393
     83 N9          0.1510   -3.5050    2.0720 n         1 MOL     -0.483104
     84 C26         1.3660   -2.7220    1.8940 c3        1 MOL      0.036059
     85 C27         1.9180   -2.9530    0.5190 c         1 MOL      0.709828
     86 O15         2.5340   -3.9310    0.2290 o         1 MOL     -0.598026
     87 C28         2.4250   -3.0730    2.9410 c3        1 MOL      0.036346
     88 C29         1.8860   -3.3420    4.3380 c3        1 MOL     -0.003346
     89 C30         3.5120   -1.9000    2.9840 c3        1 MOL     -0.226940
     90 C31         1.3910   -2.1010    5.0530 c3        1 MOL     -0.168695
     91 H36         0.2160   -4.3460    2.6260 hn        1 MOL      0.282968
     92 H37         1.0740   -1.6670    1.9710 h1        1 MOL      0.107781
     93 H38         2.9060   -3.9990    2.6340 hc        1 MOL     -0.006579
     94 H39         2.6710   -3.7450    4.9750 hc        1 MOL      0.008188
     95 H40         1.1520   -4.1410    4.2770 hc        1 MOL      0.008188
     96 H41         2.9960   -1.0120    3.3460 hc        1 MOL      0.049768
     97 H42         4.2170   -2.2560    3.7360 hc        1 MOL      0.049768
     98 H43         3.9070   -1.7750    1.9770 hc        1 MOL      0.049768
     99 H44         2.2140   -1.4100    5.2450 hc        1 MOL      0.047223
    100 H45         0.6610   -1.5740    4.4430 hc        1 MOL      0.047223
    101 H46         0.8790   -2.2510    5.9980 hc        1 MOL      0.047223
    102 N10         1.8300   -1.8790   -0.2900 n         1 MOL     -0.411080
    103 C32         2.6730   -1.6950   -1.4180 c3        1 MOL      0.151467
    104 C33         4.0910   -1.1960   -1.0240 c         1 MOL      0.333245
    105 O16         4.3120   -0.5540    0.0150 o         1 MOL     -0.063261
    106 C34         2.0000   -0.8580   -2.5180 c3        1 MOL     -0.311109
    107 C35         0.5280   -1.3270   -2.8710 c         1 MOL      0.724304
    108 O17        -0.3820   -0.9740   -2.0620 o         1 MOL     -0.650215
    109 O18         0.3240   -1.9550   -3.9080 o         1 MOL     -0.650215
    110 H47         1.3300   -1.0690    0.0520 hn        1 MOL      0.107678
    111 H48         2.8250   -2.6400   -1.9380 h1        1 MOL      0.054531
    112 H49         2.5870   -0.8210   -3.4380 hc        1 MOL      0.076425
    113 H50         1.9220    0.1380   -2.0870 hc        1 MOL      0.076425
    114 N11         5.0840   -1.4800   -1.8430 n         1 MOL     -0.710927
    115 C36         6.4660   -1.2530   -1.4100 c3        1 MOL      0.583674
    116 C37         6.8550    0.2420   -1.0500 c         1 MOL      0.176686
    117 O19         7.4870    0.4930   -0.0540 o         1 MOL     -0.462254
    118 C38         7.4610   -1.9410   -2.3270 c3        1 MOL     -0.384628
    119 C39         8.8770   -1.7670   -1.8790 ca        1 MOL      0.203760
    120 C40         9.4440   -2.6120   -0.9660 ca        1 MOL     -0.258666
    121 C41         9.6340   -0.6560   -2.3390 ca        1 MOL     -0.258666
    122 C42        10.7260   -2.4160   -0.4190 ca        1 MOL     -0.003541
    123 C43        10.9680   -0.5580   -1.9870 ca        1 MOL     -0.003541
    124 C44        11.5560   -1.4910   -1.0240 ca        1 MOL     -0.235832
    125 H51         4.8260   -1.8480   -2.7510 hn        1 MOL      0.346005
    126 H52         6.4950   -1.7360   -0.4310 h1        1 MOL     -0.008095
    127 H53         7.4760   -1.5910   -3.3650 hc        1 MOL      0.104668
    128 H54         7.2830   -3.0090   -2.2890 hc        1 MOL      0.104668
    129 H55         8.8240   -3.4160   -0.6200 ha        1 MOL      0.132304
    130 H56         9.1850    0.1570   -2.8910 ha        1 MOL      0.132304
    131 H57        11.0550   -2.9590    0.4540 ha        1 MOL      0.091557
    132 H58        11.5340    0.1990   -2.5040 ha        1 MOL      0.091557
    133 H59        12.5650   -1.2820   -0.6830 ha        1 MOL      0.126919
    134 N12         6.3530    1.2970   -1.7020 n         1 MOL      0.058705
    135 C45         6.4440    2.6850   -1.2110 c3        1 MOL      0.030967
    136 C46         5.6610    2.9860    0.0970 c         1 MOL      0.285656
    137 O20         6.0630    3.8430    0.8550 o         1 MOL     -0.486233
    138 C47         6.1060    3.5870   -2.4430 c3        1 MOL     -0.025393
    139 C48         6.3280    2.7370   -3.6440 c3        1 MOL     -0.006966
    140 C49         5.8510    1.3310   -3.0700 c3        1 MOL     -0.134210
    141 H60         7.5070    2.8600   -1.0420 h1        1 MOL      0.065994
    142 H61         5.0600    3.8910   -2.5070 hc        1 MOL      0.035283
    143 H62         6.7980    4.4270   -2.4590 hc        1 MOL      0.035283
    144 H63         5.7240    3.0410   -4.4990 hc        1 MOL      0.018210
    145 H64         7.3780    2.7860   -3.9310 hc        1 MOL      0.018210
    146 H65         4.7680    1.3200   -3.0520 h1        1 MOL      0.054800
    147 H66         6.2600    0.5450   -3.6990 h1        1 MOL      0.054800
    148 N13         4.5550    2.2790    0.3870 n         1 MOL     -0.150175
    149 C50         3.8460    2.3230    1.6840 c3        1 MOL     -0.098632
    150 C51         4.6640    1.6850    2.8060 c         1 MOL      0.401216
    151 O21         4.5060    2.1220    3.9880 o         1 MOL     -0.568700
    152 C52         2.4520    1.6010    1.5790 c3        1 MOL      0.053392
    153 C53         1.6670    2.3630    0.4560 c3        1 MOL     -0.264780
    154 C54         0.2140    1.8210    0.4310 c         1 MOL      0.776489
    155 O22        -0.6490    2.3950   -0.3270 o         1 MOL     -0.784308
    156 O23        -0.0500    0.6980    0.8730 o         1 MOL     -0.784308
    157 H67         4.3380    1.4390   -0.1290 hn        1 MOL      0.074981
    158 H68         3.6150    3.3370    2.0310 h1        1 MOL      0.132506
    159 H69         1.8940    1.6570    2.5120 hc        1 MOL      0.046236
    160 H70         2.5790    0.5370    1.3950 hc        1 MOL      0.046236
    161 H71         2.2040    2.1280   -0.4660 hc        1 MOL      0.087460
    162 H72         1.6230    3.4160    0.7060 hc        1 MOL      0.087460
    163 N14         5.5350    0.7270    2.4780 n         1 MOL      0.063022
    164 C55         6.4240    0.1650    3.4900 c3        1 MOL     -0.302978
    165 H73         6.7520    0.9560    4.1650 h1        1 MOL      0.104590
    166 H74         5.8920   -0.5980    4.0580 h1        1 MOL      0.104590
    167 H75         7.2920   -0.2810    3.0050 h1        1 MOL      0.104590
    168 H76         5.4810    0.3820    1.5280 hn        1 MOL     -0.033969
    169 Ca1        -2.1520    0.0280   -0.5520 Ca        1 MOL      1.733942
    170 O24        -3.9360   -0.9420    1.4390 oh        1 MOL     -0.991934
    171 H77        -3.2880   -0.5420    2.0180 ho        1 MOL      0.445542
    172 H78        -4.7410   -0.9530    1.9540 ho        1 MOL      0.445542
@<TRIPOS>BOND
     1    1    2 1   
     2    1    4 1   
     3    1    5 1   
     4    1    6 1   
     5    2    3 2   
     6    2    7 1   
     7    7    8 1   
     8    7   15 1   
     9    8    9 1   
    10    8   11 1   
    11    8   16 1   
    12    9   10 2   
    13    9   19 1   
    14   11   12 1   
    15   11   17 1   
    16   11   18 1   
    17   12   13 1   
    18   12   14 1   
    19   19   20 1   
    20   19   24 1   
    21   20   21 1   
    22   20   23 1   
    23   20   25 1   
    24   21   22 2   
    25   21   29 1   
    26   23   26 1   
    27   23   27 1   
    28   23   28 1   
    29   29   30 1   
    30   29   37 1   
    31   30   31 1   
    32   30   33 1   
    33   30   38 1   
    34   31   32 2   
    35   31   41 1   
    36   33   34 1   
    37   33   39 1   
    38   33   40 1   
    39   34   35 1   
    40   34   36 1   
    41   41   42 1   
    42   41   45 1   
    43   42   43 1   
    44   42   46 1   
    45   42   47 1   
    46   43   44 2   
    47   43   48 1   
    48   48   49 1   
    49   48   56 1   
    50   49   50 1   
    51   49   52 1   
    52   49   57 1   
    53   50   51 2   
    54   50   62 1   
    55   52   53 1   
    56   52   58 1   
    57   52   59 1   
    58   53   54 1   
    59   53   55 2   
    60   54   60 1   
    61   54   61 1   
    62   62   63 1   
    63   62   66 1   
    64   63   64 1   
    65   63   67 1   
    66   63   68 1   
    67   64   65 2   
    68   64   69 1   
    69   69   70 1   
    70   69   76 1   
    71   70   71 1   
    72   70   73 1   
    73   70   77 1   
    74   71   72 2   
    75   71   83 1   
    76   73   74 1   
    77   73   75 1   
    78   73   78 1   
    79   74   80 1   
    80   74   81 1   
    81   74   82 1   
    82   75   79 1   
    83   83   84 1   
    84   83   91 1   
    85   84   85 1   
    86   84   87 1   
    87   84   92 1   
    88   85   86 2   
    89   85  102 1   
    90   87   88 1   
    91   87   89 1   
    92   87   93 1   
    93   88   90 1   
    94   88   94 1   
    95   88   95 1   
    96   89   96 1   
    97   89   97 1   
    98   89   98 1   
    99   90   99 1   
   100   90  100 1   
   101   90  101 1   
   102  102  103 1   
   103  102  110 1   
   104  103  104 1   
   105  103  106 1   
   106  103  111 1   
   107  104  105 2   
   108  104  114 1   
   109  106  107 1   
   110  106  112 1   
   111  106  113 1   
   112  107  108 1   
   113  107  109 1   
   114  114  115 1   
   115  114  125 1   
   116  115  116 1   
   117  115  118 1   
   118  115  126 1   
   119  116  117 2   
   120  116  134 1   
   121  118  119 1   
   122  118  127 1   
   123  118  128 1   
   124  119  120 ar  
   125  119  121 ar  
   126  120  122 ar  
   127  120  129 1   
   128  121  123 ar  
   129  121  130 1   
   130  122  124 ar  
   131  122  131 1   
   132  123  124 ar  
   133  123  132 1   
   134  124  133 1   
   135  134  135 1   
   136  134  140 1   
   137  135  136 1   
   138  135  138 1   
   139  135  141 1   
   140  136  137 2   
   141  136  148 1   
   142  138  139 1   
   143  138  142 1   
   144  138  143 1   
   145  139  140 1   
   146  139  144 1   
   147  139  145 1   
   148  140  146 1   
   149  140  147 1   
   150  148  149 1   
   151  148  157 1   
   152  149  150 1   
   153  149  152 1   
   154  149  158 1   
   155  150  151 2   
   156  150  163 1   
   157  152  153 1   
   158  152  159 1   
   159  152  160 1   
   160  153  154 1   
   161  153  161 1   
   162  153  162 1   
   163  154  155 1   
   164  154  156 1   
   165  163  164 1   
   166  163  168 1   
   167  164  165 1   
   168  164  166 1   
   169  164  167 1   
   170  170  171 1   
   171  170  172 1   
@<TRIPOS>SUBSTRUCTURE
     1 MOL         1 TEMP              0 ****  ****    0 ROOT
