@<TRIPOS>MOLECULE
MOL
  179   176     1     0     0
SMALL
resp


@<TRIPOS>ATOM
      1 C1          2.6190    1.5770    5.7510 c3        1 MOL     -0.407151
      2 C2          2.0570    1.7140    4.3330 c         1 MOL      0.804543
      3 O1          2.8650    1.4910    3.4660 o         1 MOL     -0.606313
      4 H1          1.9390    2.0510    6.4580 hc        1 MOL      0.100469
      5 H2          2.7220    0.5210    6.0010 hc        1 MOL      0.100469
      6 H3          3.5940    2.0610    5.8040 hc        1 MOL      0.100469
      7 N1          0.7500    1.8820    4.1810 n         1 MOL     -0.614268
      8 C3          0.1350    2.1760    2.8440 c3        1 MOL      0.148686
      9 C4          0.3840    3.6690    2.3250 c         1 MOL      0.369485
     10 O2          0.2720    4.6430    3.1200 o         1 MOL     -0.531167
     11 C5         -1.4010    1.7660    2.9160 c3        1 MOL     -0.170343
     12 C6         -2.2050    1.7000    1.5890 c         1 MOL      0.870698
     13 O3         -3.3220    1.0540    1.5700 o         1 MOL     -0.810559
     14 O4         -1.6860    2.2920    0.6490 o         1 MOL     -0.810559
     15 H4          0.1180    1.9150    4.9720 hn        1 MOL      0.331083
     16 H5          0.6030    1.4590    2.1630 h1        1 MOL      0.010504
     17 H6         -1.8960    2.4640    3.5990 hc        1 MOL      0.038416
     18 H7         -1.4660    0.7730    3.3550 hc        1 MOL      0.038416
     19 N2          0.7210    3.7900    1.0590 n         1 MOL     -0.086192
     20 C7          1.0320    5.0900    0.4740 c3        1 MOL     -0.045632
     21 C8         -0.1680    5.7020   -0.2690 c         1 MOL      0.474039
     22 O5         -0.1720    6.8960   -0.5220 o         1 MOL     -0.563027
     23 C9          2.3330    4.9540   -0.4550 c3        1 MOL     -0.074187
     24 C10         3.6900    4.9590    0.3500 c3        1 MOL     -0.136494
     25 C11         4.8700    4.5900   -0.5850 c3        1 MOL      0.132201
     26 C12         5.3710    5.9090   -1.2180 c3        1 MOL     -0.095466
     27 N3          6.6430    5.6490   -1.9230 n4        1 MOL     -0.306972
     28 H8          0.7500    2.9480    0.5040 hn        1 MOL      0.115429
     29 H9          1.2440    5.7160    1.3380 h1        1 MOL      0.102670
     30 H10         2.4560    5.8230   -1.1020 hc        1 MOL      0.032179
     31 H11         2.3000    4.1320   -1.1680 hc        1 MOL      0.032179
     32 H12         3.6330    4.1390    1.0650 hc        1 MOL      0.070082
     33 H13         3.9020    5.9170    0.8270 hc        1 MOL      0.070082
     34 H14         4.7080    3.8300   -1.3450 hc        1 MOL      0.026306
     35 H15         5.6670    4.2690    0.0780 hc        1 MOL      0.026306
     36 H16         5.6430    6.4750   -0.3260 hx        1 MOL      0.113646
     37 H17         4.6410    6.4000   -1.8550 hx        1 MOL      0.113646
     38 H18         6.9150    6.4910   -2.4150 hn        1 MOL      0.313743
     39 H19         7.4510    5.3660   -1.3900 hn        1 MOL      0.313743
     40 H20         6.4850    5.0470   -2.7220 hn        1 MOL      0.313743
     41 N4         -1.1410    4.8930   -0.6570 n         1 MOL     -0.296199
     42 C13        -2.1930    5.3610   -1.5760 c3        1 MOL      0.089422
     43 C14        -3.5750    5.3380   -0.8080 c         1 MOL      0.436069
     44 O6         -4.3990    6.2900   -1.0070 o         1 MOL     -0.544111
     45 C15        -2.3240    4.6160   -2.9830 c3        1 MOL     -0.243461
     46 C16        -2.8200    3.1550   -2.9490 c         1 MOL      0.772183
     47 O7         -2.8570    2.4030   -1.9670 o         1 MOL     -0.721773
     48 O8         -3.2120    2.6710   -4.0430 o         1 MOL     -0.721773
     49 H21        -1.0460    3.9320   -0.3380 hn        1 MOL      0.241942
     50 H22        -2.1420    6.4300   -1.7700 h1        1 MOL      0.085154
     51 H23        -1.3840    4.5940   -3.5470 hc        1 MOL      0.060691
     52 H24        -3.0120    5.1440   -3.6430 hc        1 MOL      0.060691
     53 N5         -3.7360    4.4100    0.1580 n         1 MOL     -0.217806
     54 C17        -4.8640    4.2960    1.0900 c3        1 MOL     -0.124346
     55 C18        -5.9040    3.2960    0.5710 c         1 MOL      0.477638
     56 O9         -7.0850    3.4940    0.9110 o         1 MOL     -0.553068
     57 H25        -2.9940    3.7230    0.1720 hn        1 MOL      0.152737
     58 H26        -5.2630    5.2880    1.3250 h1        1 MOL      0.106778
     59 H27        -4.4360    3.8180    1.9730 h1        1 MOL      0.106778
     60 N6         -5.5380    2.3160   -0.3070 n         1 MOL     -0.054753
     61 C19        -6.4230    1.3600   -0.9650 c3        1 MOL     -0.249958
     62 C20        -6.9760    0.3280    0.0110 c         1 MOL      0.400887
     63 O10        -7.9550   -0.3400   -0.1970 o         1 MOL     -0.496013
     64 C21        -5.8000    0.7550   -2.2570 c3        1 MOL     -0.101781
     65 C22        -4.7510   -0.3210   -1.9920 c         1 MOL      0.283349
     66 N7         -4.7870   -1.3870   -2.6690 n         1 MOL     -0.455332
     67 O11        -3.9090   -0.2790   -1.0930 o         1 MOL     -0.354647
     68 H28        -4.5830    2.3910   -0.6440 hn        1 MOL      0.106659
     69 H29        -7.1830    2.0750   -1.2700 h1        1 MOL      0.148610
     70 H30        -5.4330    1.5730   -2.8790 hc        1 MOL      0.104588
     71 H31        -6.5980    0.3730   -2.8980 hc        1 MOL      0.104588
     72 H32        -5.5340   -1.5090   -3.3400 hn        1 MOL      0.284664
     73 H33        -4.1940   -2.1620   -2.4080 hn        1 MOL      0.284664
     74 N8         -6.1940    0.0130    1.0980 n         1 MOL     -0.061746
     75 C23        -6.4430   -1.1520    2.0220 c3        1 MOL     -0.473892
     76 C24        -5.4960   -2.3620    1.8040 c         1 MOL      0.804316
     77 O12        -5.8630   -3.4760    2.1640 o         1 MOL     -0.552995
     78 H34        -5.3620    0.5810    1.1690 hn        1 MOL      0.103593
     79 H35        -7.4760   -1.4480    1.8640 h1        1 MOL      0.170211
     80 H36        -6.3160   -0.8060    3.0500 h1        1 MOL      0.170211
     81 N9         -4.3250   -2.0740    1.2210 n         1 MOL     -1.084811
     82 C25        -3.2640   -3.0640    1.0090 c3        1 MOL      0.474975
     83 C26        -1.9290   -2.3890    1.1580 c         1 MOL      0.388231
     84 O13        -1.7440   -1.3150    0.6080 o         1 MOL     -0.667679
     85 C27        -3.3740   -3.9460   -0.2790 c3        1 MOL      0.011480
     86 C28        -4.7170   -4.5780   -0.5210 ca        1 MOL      0.056429
     87 C29        -4.9490   -5.9720   -0.4780 ca        1 MOL     -0.162824
     88 C30        -5.8450   -3.7950   -0.8540 ca        1 MOL     -0.162824
     89 C31        -6.2160   -6.5940   -0.6990 ca        1 MOL     -0.345767
     90 C32        -7.1400   -4.3510   -1.1340 ca        1 MOL     -0.345767
     91 C33        -7.3240   -5.7860   -0.9760 ca        1 MOL      0.449666
     92 O14        -8.5700   -6.3620   -1.1170 oh        1 MOL     -0.491824
     93 H37        -4.2370   -1.2160    0.6970 hn        1 MOL      0.910068
     94 H38        -3.3070   -3.8110    1.7980 h1        1 MOL     -0.014371
     95 H39        -2.7050   -4.8140   -0.2290 hc        1 MOL     -0.042783
     96 H40        -3.2310   -3.2780   -1.1250 hc        1 MOL     -0.042783
     97 H41        -4.0800   -6.5220   -0.1300 ha        1 MOL      0.126950
     98 H42        -5.7660   -2.7260   -0.9220 ha        1 MOL      0.126950
     99 H43        -6.3860   -7.6450   -0.5410 ha        1 MOL      0.176604
    100 H44        -7.9670   -3.6870   -1.3210 ha        1 MOL      0.176604
    101 H45        -8.5010   -7.3160   -0.9980 ho        1 MOL      0.347289
    102 N10        -0.8980   -3.1180    1.7330 n         1 MOL     -0.370142
    103 C34         0.5400   -2.8310    1.6160 c3        1 MOL      0.039344
    104 C35         1.0260   -3.7280    0.4410 c         1 MOL      0.311454
    105 O15         0.6970   -4.9070    0.2270 o         1 MOL     -0.520717
    106 C36         1.3230   -3.1530    2.9470 c3        1 MOL      0.067652
    107 C37         0.5790   -2.6950    4.2370 c3        1 MOL      0.382527
    108 C38         2.7910   -2.6490    2.9530 c3        1 MOL     -0.175558
    109 C39         1.0300   -3.3930    5.5320 c3        1 MOL     -0.320087
    110 H46        -1.1580   -4.0260    2.1130 hn        1 MOL      0.256201
    111 H47         0.6900   -1.7690    1.4390 h1        1 MOL      0.147389
    112 H48         1.4910   -4.2280    3.0490 hc        1 MOL     -0.002097
    113 H49        -0.4790   -2.8790    4.0750 hc        1 MOL     -0.105715
    114 H50         0.7310   -1.6230    4.2820 hc        1 MOL     -0.105715
    115 H51         3.3490   -2.8010    2.0330 hc        1 MOL      0.025586
    116 H52         2.9140   -1.6130    3.2720 hc        1 MOL      0.025586
    117 H53         3.3550   -3.2810    3.6530 hc        1 MOL      0.025586
    118 H54         0.6620   -2.8070    6.3760 hc        1 MOL      0.069925
    119 H55         0.5950   -4.3980    5.4640 hc        1 MOL      0.069925
    120 H56         2.1120   -3.3540    5.5390 hc        1 MOL      0.069925
    121 N11         2.0170   -3.2100   -0.3210 n         1 MOL     -0.064683
    122 C40         2.8050   -3.9050   -1.3720 c3        1 MOL     -0.065495
    123 C41         4.3230   -3.8130   -1.0280 c         1 MOL      0.357374
    124 O16         4.6810   -2.9630   -0.1910 o         1 MOL     -0.347304
    125 C42         2.7670   -3.1060   -2.6690 c3        1 MOL      0.102609
    126 O17         3.1180   -1.7650   -2.4620 oh        1 MOL     -0.477756
    127 H57         2.0770   -2.2160   -0.1620 hn        1 MOL      0.169301
    128 H58         2.3950   -4.8680   -1.6740 h1        1 MOL      0.095915
    129 H59         1.8120   -3.2900   -3.1560 h1        1 MOL      0.033227
    130 H60         3.4240   -3.5020   -3.4430 h1        1 MOL      0.033227
    131 H61         2.5130   -1.5420   -1.7480 ho        1 MOL      0.249845
    132 N12         5.1360   -4.5720   -1.6900 n         1 MOL     -0.389201
    133 C43         6.5340   -4.6680   -1.3440 c3        1 MOL      0.199452
    134 C44         7.2810   -3.2980   -1.3650 c         1 MOL      0.455034
    135 O18         7.9490   -3.0710   -0.3500 o         1 MOL     -0.512346
    136 C45         7.1980   -5.8580   -2.1570 c3        1 MOL     -0.314181
    137 H62         4.7690   -5.2220   -2.3750 hn        1 MOL      0.273463
    138 H63         6.6010   -4.9360   -0.2900 h1        1 MOL      0.063720
    139 H64         7.3060   -6.7570   -1.5660 hc        1 MOL      0.097391
    140 H65         6.5080   -6.1010   -2.9710 hc        1 MOL      0.097391
    141 H66         8.1520   -5.5630   -2.6010 hc        1 MOL      0.097391
    142 N13         7.1400   -2.3500   -2.3300 n         1 MOL     -0.484374
    143 C46         7.8600   -1.0740   -2.3000 c3        1 MOL      0.272812
    144 C47         7.2870   -0.0180   -1.2390 c         1 MOL      0.358879
    145 O19         8.0450    0.7410   -0.6850 o         1 MOL     -0.493278
    146 C48         7.6920   -0.4210   -3.6520 c3        1 MOL     -0.396008
    147 H67         6.6330   -2.6280   -3.1550 hn        1 MOL      0.282322
    148 H68         8.9200   -1.1270   -2.0260 h1        1 MOL      0.068200
    149 H69         7.9620    0.6180   -3.4850 hc        1 MOL      0.100923
    150 H70         8.4140   -0.8290   -4.3620 hc        1 MOL      0.100923
    151 H71         6.6970   -0.4750   -4.0870 hc        1 MOL      0.100923
    152 N14         5.9910   -0.1600   -0.8620 n         1 MOL     -0.331331
    153 C49         5.3980    0.4880    0.3310 c3        1 MOL      0.062017
    154 C50         6.0040    0.0900    1.5870 c         1 MOL      0.560091
    155 O20         6.4150    0.9230    2.3600 o         1 MOL     -0.547247
    156 C51         3.8570    0.1770    0.3710 c3        1 MOL      0.183834
    157 C52         3.1370    0.9090   -0.7320 c3        1 MOL     -0.076946
    158 C53         1.5900    0.6910   -0.8340 c         1 MOL      0.788963
    159 O21         0.7710    1.6770   -0.9250 o         1 MOL     -0.775546
    160 O22         1.1960   -0.4810   -0.8050 o         1 MOL     -0.775546
    161 H72         5.3660   -0.8440   -1.2630 hn        1 MOL      0.205471
    162 H73         5.5060    1.5680    0.2550 h1        1 MOL     -0.033114
    163 H74         3.4140    0.5480    1.2970 hc        1 MOL     -0.028520
    164 H75         3.6590   -0.8860    0.2870 hc        1 MOL     -0.028520
    165 H76         3.5250    0.6770   -1.7210 hc        1 MOL     -0.019179
    166 H77         3.1820    1.9730   -0.5020 hc        1 MOL     -0.019179
    167 N15         6.0140   -1.2490    1.7820 n         1 MOL     -0.190080
    168 C54         6.6720   -1.8380    2.9830 c3        1 MOL     -0.257157
    169 H78         5.9840   -1.8030    3.8270 h1        1 MOL      0.101824
    170 H79         6.9440   -2.8730    2.7780 h1        1 MOL      0.101824
    171 H80         7.5700   -1.2660    3.2230 h1        1 MOL      0.101824
    172 H81         5.6890   -1.9540    1.1460 hn        1 MOL      0.197793
    173 Ca1        -1.4290    0.4620   -1.1890 Ca        1 MOL      1.741285
    174 O23        -1.7330   -1.8260   -2.9940 oh        1 MOL     -0.867919
    175 H82        -1.6370   -1.8200   -3.9490 ho        1 MOL      0.423758
    176 H83        -1.3180   -2.6400   -2.7080 ho        1 MOL      0.423758
    177 O24        -0.7590    1.0790   -3.6290 oh        1 MOL     -0.867919
    178 H84         0.1800    1.0940   -3.8430 ho        1 MOL      0.423758
    179 H85        -1.1960    1.2220   -4.4750 ho        1 MOL      0.423758
@<TRIPOS>BOND
     1    1    2 1   
     2    1    4 1   
     3    1    5 1   
     4    1    6 1   
     5    2    3 2   
     6    2    7 1   
     7    7    8 1   
     8    7   15 1   
     9    8    9 1   
    10    8   11 1   
    11    8   16 1   
    12    9   10 2   
    13    9   19 1   
    14   11   12 1   
    15   11   17 1   
    16   11   18 1   
    17   12   13 1   
    18   12   14 1   
    19   19   20 1   
    20   19   28 1   
    21   20   21 1   
    22   20   23 1   
    23   20   29 1   
    24   21   22 2   
    25   21   41 1   
    26   23   24 1   
    27   23   30 1   
    28   23   31 1   
    29   24   25 1   
    30   24   32 1   
    31   24   33 1   
    32   25   26 1   
    33   25   34 1   
    34   25   35 1   
    35   26   27 1   
    36   26   36 1   
    37   26   37 1   
    38   27   38 1   
    39   27   39 1   
    40   27   40 1   
    41   41   42 1   
    42   41   49 1   
    43   42   43 1   
    44   42   45 1   
    45   42   50 1   
    46   43   44 2   
    47   43   53 1   
    48   45   46 1   
    49   45   51 1   
    50   45   52 1   
    51   46   47 1   
    52   46   48 1   
    53   53   54 1   
    54   53   57 1   
    55   54   55 1   
    56   54   58 1   
    57   54   59 1   
    58   55   56 2   
    59   55   60 1   
    60   60   61 1   
    61   60   68 1   
    62   61   62 1   
    63   61   64 1   
    64   61   69 1   
    65   62   63 2   
    66   62   74 1   
    67   64   65 1   
    68   64   70 1   
    69   64   71 1   
    70   65   66 1   
    71   65   67 2   
    72   66   72 1   
    73   66   73 1   
    74   74   75 1   
    75   74   78 1   
    76   75   76 1   
    77   75   79 1   
    78   75   80 1   
    79   76   77 2   
    80   76   81 1   
    81   81   82 1   
    82   81   93 1   
    83   82   83 1   
    84   82   85 1   
    85   82   94 1   
    86   83   84 2   
    87   83  102 1   
    88   85   86 1   
    89   85   95 1   
    90   85   96 1   
    91   86   87 ar  
    92   86   88 ar  
    93   87   89 ar  
    94   87   97 1   
    95   88   90 ar  
    96   88   98 1   
    97   89   91 ar  
    98   89   99 1   
    99   90   91 ar  
   100   90  100 1   
   101   91   92 1   
   102   92  101 1   
   103  102  103 1   
   104  102  110 1   
   105  103  104 1   
   106  103  106 1   
   107  103  111 1   
   108  104  105 2   
   109  104  121 1   
   110  106  107 1   
   111  106  108 1   
   112  106  112 1   
   113  107  109 1   
   114  107  113 1   
   115  107  114 1   
   116  108  115 1   
   117  108  116 1   
   118  108  117 1   
   119  109  118 1   
   120  109  119 1   
   121  109  120 1   
   122  121  122 1   
   123  121  127 1   
   124  122  123 1   
   125  122  125 1   
   126  122  128 1   
   127  123  124 2   
   128  123  132 1   
   129  125  126 1   
   130  125  129 1   
   131  125  130 1   
   132  126  131 1   
   133  132  133 1   
   134  132  137 1   
   135  133  134 1   
   136  133  136 1   
   137  133  138 1   
   138  134  135 2   
   139  134  142 1   
   140  136  139 1   
   141  136  140 1   
   142  136  141 1   
   143  142  143 1   
   144  142  147 1   
   145  143  144 1   
   146  143  146 1   
   147  143  148 1   
   148  144  145 2   
   149  144  152 1   
   150  146  149 1   
   151  146  150 1   
   152  146  151 1   
   153  152  153 1   
   154  152  161 1   
   155  153  154 1   
   156  153  156 1   
   157  153  162 1   
   158  154  155 2   
   159  154  167 1   
   160  156  157 1   
   161  156  163 1   
   162  156  164 1   
   163  157  158 1   
   164  157  165 1   
   165  157  166 1   
   166  158  159 1   
   167  158  160 1   
   168  167  168 1   
   169  167  172 1   
   170  168  169 1   
   171  168  170 1   
   172  168  171 1   
   173  174  175 1   
   174  174  176 1   
   175  177  178 1   
   176  177  179 1   
@<TRIPOS>SUBSTRUCTURE
     1 MOL         1 TEMP              0 ****  ****    0 ROOT
