@<TRIPOS>MOLECULE
MOL
  179   176     1     0     0
SMALL
resp


@<TRIPOS>ATOM
      1 C1          2.4580    2.4690    5.4200 c3        1 MOL     -0.375234
      2 C2          1.7770    2.4490    4.0090 c         1 MOL      0.708503
      3 O1          2.3710    2.6650    2.9540 o         1 MOL     -0.620203
      4 H1          2.9180    3.4430    5.5870 hc        1 MOL      0.103093
      5 H2          1.7070    2.2850    6.1890 hc        1 MOL      0.103093
      6 H3          3.2230    1.6940    5.4660 hc        1 MOL      0.103093
      7 N1          0.4410    2.1620    3.9640 n         1 MOL     -0.517685
      8 C3         -0.3450    2.0840    2.7440 c3        1 MOL      0.009808
      9 C4         -0.3910    3.4680    2.1210 c         1 MOL      0.553658
     10 O2         -1.0160    4.2650    2.7950 o         1 MOL     -0.519711
     11 C5         -1.7580    1.5420    3.1120 c3        1 MOL     -0.334053
     12 C6         -2.6760    1.3740    1.9490 c         1 MOL      0.970808
     13 O3         -3.8200    0.8510    1.9920 o         1 MOL     -0.807271
     14 O4         -2.1760    1.6880    0.8890 o         1 MOL     -0.807271
     15 H4          0.0140    2.0170    4.8640 hn        1 MOL      0.310565
     16 H5          0.3570    1.4900    2.1470 h1        1 MOL     -0.008507
     17 H6         -2.2230    2.2580    3.7980 hc        1 MOL      0.094376
     18 H7         -1.6820    0.5600    3.5610 hc        1 MOL      0.094376
     19 N2          0.3270    3.7100    1.0290 n         1 MOL     -0.174052
     20 C7          0.5840    5.1710    0.5870 c3        1 MOL     -0.052746
     21 C8         -0.7080    5.8670    0.1880 c         1 MOL      0.392823
     22 O5         -1.0320    6.9090    0.6680 o         1 MOL     -0.512515
     23 C9          1.5150    5.1190   -0.6310 c3        1 MOL     -0.067209
     24 C10         2.9940    4.9140   -0.3490 c3        1 MOL      0.191118
     25 C11         3.8900    5.3440   -1.4740 c3        1 MOL     -0.245547
     26 C12         5.3220    4.9620   -1.1300 c3        1 MOL      0.211285
     27 N3          6.1490    5.3280   -2.3120 n4        1 MOL     -0.442368
     28 H8          0.7920    2.9930    0.4860 hn        1 MOL      0.184772
     29 H9          1.0480    5.7520    1.3890 h1        1 MOL      0.086743
     30 H10         1.5090    6.0960   -1.1140 hc        1 MOL      0.019370
     31 H11         1.2160    4.3980   -1.3920 hc        1 MOL      0.019370
     32 H12         3.2310    3.8770   -0.0690 hc        1 MOL     -0.007129
     33 H13         3.1820    5.4890    0.5560 hc        1 MOL     -0.007129
     34 H14         3.7190    6.4120   -1.6210 hc        1 MOL      0.071743
     35 H15         3.4460    4.8530   -2.3420 hc        1 MOL      0.071743
     36 H16         5.4140    3.8950   -0.9340 hx        1 MOL      0.062424
     37 H17         5.7000    5.5620   -0.3030 hx        1 MOL      0.062424
     38 H18         7.1170    5.1470   -2.0770 hn        1 MOL      0.340536
     39 H19         6.0120    4.6300   -3.0310 hn        1 MOL      0.340536
     40 H20         5.8980    6.2640   -2.5880 hn        1 MOL      0.340536
     41 N4         -1.4330    5.1270   -0.5920 n         1 MOL     -0.205841
     42 C13        -2.6380    5.4520   -1.3030 c3        1 MOL      0.057993
     43 C14        -3.9460    5.1230   -0.5950 c         1 MOL      0.353725
     44 O6         -5.0070    5.6750   -1.0100 o         1 MOL     -0.520992
     45 C15        -2.5860    4.9440   -2.7890 c3        1 MOL     -0.140771
     46 C16        -2.5150    3.3800   -2.9850 c         1 MOL      0.797127
     47 O7         -2.2890    2.9840   -4.1390 o         1 MOL     -0.729630
     48 O8         -2.4190    2.6630   -2.0110 o         1 MOL     -0.729630
     49 H21        -1.1320    4.1790   -0.7840 hn        1 MOL      0.159088
     50 H22        -2.6420    6.5350   -1.4280 h1        1 MOL      0.079422
     51 H23        -1.6150    5.2990   -3.1420 hc        1 MOL      0.026209
     52 H24        -3.3640    5.4290   -3.3770 hc        1 MOL      0.026209
     53 N5         -3.9380    4.1300    0.3450 n         1 MOL     -0.099143
     54 C17        -5.1200    3.6780    1.1400 c3        1 MOL     -0.213043
     55 C18        -6.1150    2.7540    0.4910 c         1 MOL      0.613261
     56 O9         -7.2980    2.9170    0.7170 o         1 MOL     -0.585753
     57 H25        -2.9970    3.8310    0.5580 hn        1 MOL      0.143620
     58 H26        -5.7200    4.5540    1.4000 h1        1 MOL      0.107093
     59 H27        -4.7150    3.2400    2.0510 h1        1 MOL      0.107093
     60 N6         -5.6180    1.8450   -0.3220 n         1 MOL     -0.231723
     61 C19        -6.4210    0.8260   -1.0790 c3        1 MOL     -0.055237
     62 C20        -6.6230   -0.5030   -0.3380 c         1 MOL      0.317673
     63 O10        -7.0950   -1.4980   -0.8570 o         1 MOL     -0.427409
     64 C21        -5.9580    0.8060   -2.5360 c3        1 MOL     -0.001684
     65 C22        -4.8700   -0.2680   -2.7010 c         1 MOL      0.433084
     66 N7         -4.9340   -1.0180   -3.7540 n         1 MOL     -0.741460
     67 O11        -3.9390   -0.5040   -1.9400 o         1 MOL     -0.482324
     68 H28        -4.6110    1.7620   -0.3040 hn        1 MOL      0.059074
     69 H29        -7.4400    1.2080   -1.1460 h1        1 MOL      0.136718
     70 H30        -5.8310    1.8110   -2.9410 hc        1 MOL      0.048576
     71 H31        -6.8030    0.4030   -3.0930 hc        1 MOL      0.048576
     72 H32        -5.8050   -0.9360   -4.2470 hn        1 MOL      0.378713
     73 H33        -4.2340   -1.7300   -3.9460 hn        1 MOL      0.378713
     74 N8         -6.2140   -0.6020    0.9540 n         1 MOL     -0.258710
     75 C23        -6.3740   -1.7710    1.8620 c3        1 MOL     -0.150842
     76 C24        -5.2850   -2.7980    1.7490 c         1 MOL      0.659223
     77 O12        -5.5010   -3.8640    2.3450 o         1 MOL     -0.558952
     78 H34        -5.6850    0.1710    1.3150 hn        1 MOL      0.293659
     79 H35        -7.3870   -2.1790    1.8220 h1        1 MOL      0.104746
     80 H36        -6.3260   -1.3860    2.8790 h1        1 MOL      0.104746
     81 N9         -4.0850   -2.4600    1.1520 n         1 MOL     -0.510465
     82 C25        -3.0010   -3.3190    0.9260 c3        1 MOL      0.319493
     83 C26        -1.6790   -2.6030    1.0490 c         1 MOL      0.465693
     84 O13        -1.5440   -1.4260    0.6950 o         1 MOL     -0.659115
     85 C27        -3.1700   -3.9170   -0.4460 c3        1 MOL      0.011685
     86 C28        -4.3610   -4.8450   -0.5850 ca        1 MOL     -0.011363
     87 C29        -5.4310   -4.3770   -1.3540 ca        1 MOL     -0.252482
     88 C30        -4.4570   -6.0280    0.1190 ca        1 MOL     -0.252482
     89 C31        -6.6160   -5.0700   -1.4060 ca        1 MOL     -0.087938
     90 C32        -5.6260   -6.8050   -0.0160 ca        1 MOL     -0.087938
     91 C33        -6.7100   -6.3460   -0.7410 ca        1 MOL      0.185848
     92 O14        -7.8960   -7.0560   -0.6850 oh        1 MOL     -0.443967
     93 H37        -3.9730   -1.5220    0.7960 hn        1 MOL      0.289656
     94 H38        -3.0520   -4.0750    1.7100 h1        1 MOL     -0.019151
     95 H39        -2.2500   -4.4950   -0.4790 hc        1 MOL      0.002993
     96 H40        -3.1360   -3.1250   -1.1990 hc        1 MOL      0.002993
     97 H41        -5.3660   -3.4860   -1.9530 ha        1 MOL      0.154953
     98 H42        -3.6070   -6.3580    0.6830 ha        1 MOL      0.154953
     99 H43        -7.4620   -4.6860   -1.9690 ha        1 MOL      0.103087
    100 H44        -5.6160   -7.8080    0.3840 ha        1 MOL      0.103087
    101 H45        -7.6980   -7.8060   -0.1180 ho        1 MOL      0.336359
    102 N10        -0.6500   -3.3280    1.4260 n         1 MOL     -0.511343
    103 C34         0.7770   -2.8210    1.5900 c3        1 MOL     -0.055563
    104 C35         1.7340   -3.7410    0.8490 c         1 MOL      0.616449
    105 O15         1.7370   -4.9560    1.1100 o         1 MOL     -0.551691
    106 C36         1.1730   -2.6080    3.1020 c3        1 MOL      0.156492
    107 C37         0.2330   -1.4690    3.7320 c3        1 MOL      0.116627
    108 C38         2.6560   -2.3920    3.2640 c3        1 MOL     -0.375190
    109 C39         0.3670   -1.6330    5.2620 c3        1 MOL     -0.194131
    110 H46        -0.7940   -4.3030    1.6650 hn        1 MOL      0.323141
    111 H47         0.8060   -1.7970    1.2160 h1        1 MOL      0.122269
    112 H48         0.8800   -3.5500    3.5540 hc        1 MOL     -0.002547
    113 H49        -0.8020   -1.6180    3.4200 hc        1 MOL      0.021336
    114 H50         0.5830   -0.4670    3.4580 hc        1 MOL      0.021336
    115 H51         3.1850   -3.2400    2.8290 hc        1 MOL      0.085002
    116 H52         2.8720   -1.4640    2.7330 hc        1 MOL      0.085002
    117 H53         2.8230   -2.2300    4.3300 hc        1 MOL      0.085002
    118 H54         0.1870   -2.6450    5.6320 hc        1 MOL      0.036940
    119 H55         1.3360   -1.2650    5.6190 hc        1 MOL      0.036940
    120 H56        -0.3960   -0.9910    5.6890 hc        1 MOL      0.036940
    121 N11         2.3230   -3.2170   -0.2410 n         1 MOL     -0.394772
    122 C40         3.3470   -3.8960   -1.0580 c3        1 MOL     -0.036021
    123 C41         4.7450   -3.6310   -0.5690 c         1 MOL      0.671692
    124 O16         4.9610   -2.7700    0.2820 o         1 MOL     -0.509849
    125 C42         3.0570   -3.4290   -2.5190 c3        1 MOL     -0.002626
    126 O17         2.8440   -2.0230   -2.6350 oh        1 MOL     -0.586394
    127 H57         1.9650   -2.3350   -0.5830 hn        1 MOL      0.333521
    128 H58         3.2800   -4.9710   -0.8710 h1        1 MOL      0.069011
    129 H59         2.3490   -4.0610   -3.0550 h1        1 MOL      0.053528
    130 H60         3.9810   -3.6540   -3.0480 h1        1 MOL      0.053528
    131 H61         3.0930   -1.7920   -3.5330 ho        1 MOL      0.431087
    132 N12         5.7180   -4.4370   -1.0090 n         1 MOL     -0.498782
    133 C43         7.1020   -4.3850   -0.6160 c3        1 MOL      0.115078
    134 C44         7.6850   -2.9820   -0.9680 c         1 MOL      0.370968
    135 O18         8.6090   -2.4660   -0.3440 o         1 MOL     -0.468142
    136 C45         7.8550   -5.4090   -1.4830 c3        1 MOL     -0.377358
    137 H62         5.6080   -5.1740   -1.6870 hn        1 MOL      0.285220
    138 H63         7.1440   -4.6000    0.4490 h1        1 MOL      0.106625
    139 H64         7.4890   -6.4200   -1.3220 hc        1 MOL      0.121286
    140 H65         7.6870   -5.2060   -2.5410 hc        1 MOL      0.121286
    141 H66         8.9060   -5.3670   -1.2010 hc        1 MOL      0.121286
    142 N13         7.1570   -2.2950   -2.0020 n         1 MOL     -0.254936
    143 C46         7.5990   -0.9410   -2.2930 c3        1 MOL      0.134126
    144 C47         7.1420    0.0680   -1.2280 c         1 MOL      0.368538
    145 O19         7.9110    0.9480   -0.7620 o         1 MOL     -0.526837
    146 C48         7.0860   -0.5540   -3.6990 c3        1 MOL     -0.191035
    147 H67         6.6840   -2.8690   -2.6910 hn        1 MOL      0.221581
    148 H68         8.6840   -0.9050   -2.3090 h1        1 MOL      0.057526
    149 H69         6.1420   -0.0350   -3.4880 hc        1 MOL      0.042481
    150 H70         7.8220    0.1260   -4.1430 hc        1 MOL      0.042481
    151 H71         6.8870   -1.4740   -4.2290 hc        1 MOL      0.042481
    152 N14         5.8940   -0.0310   -0.7950 n         1 MOL     -0.004768
    153 C49         5.2750    0.7000    0.3070 c3        1 MOL     -0.358087
    154 C50         5.9680    0.4680    1.6620 c         1 MOL      0.558192
    155 O20         6.1870    1.4170    2.4030 o         1 MOL     -0.552526
    156 C51         3.7750    0.5740    0.2840 c3        1 MOL      0.010830
    157 C52         3.1670    0.9610   -1.1010 c3        1 MOL     -0.077984
    158 C53         1.6480    0.7940   -1.0060 c         1 MOL      0.681951
    159 O21         0.9050    1.7670   -1.1370 o         1 MOL     -0.678179
    160 O22         1.0670   -0.2340   -0.6690 o         1 MOL     -0.678179
    161 H72         5.3630   -0.7920   -1.1990 hn        1 MOL      0.128114
    162 H73         5.5590    1.7350    0.1070 h1        1 MOL      0.096448
    163 H74         3.4440    1.3410    0.9810 hc        1 MOL      0.084514
    164 H75         3.3960   -0.3680    0.7000 hc        1 MOL      0.084514
    165 H76         3.4490    0.3330   -1.9500 hc        1 MOL     -0.025064
    166 H77         3.5660    1.9420   -1.3640 hc        1 MOL     -0.025064
    167 N15         6.4070   -0.7640    1.8250 n         1 MOL     -0.192627
    168 C54         7.4670   -1.0840    2.8110 c3        1 MOL     -0.163690
    169 H78         7.9420   -0.1610    3.1450 h1        1 MOL      0.089619
    170 H79         7.0260   -1.5960    3.6660 h1        1 MOL      0.089619
    171 H80         8.2140   -1.7280    2.3460 h1        1 MOL      0.089619
    172 H81         6.1760   -1.4090    1.0770 hn        1 MOL      0.174943
    173 Ca1        -1.3700    0.5010   -1.2200 Ca        1 MOL      1.757650
    174 O23        -1.1370    0.4920   -3.8420 oh        1 MOL     -0.885513
    175 H82        -1.6230   -0.1920   -4.2980 ho        1 MOL      0.414082
    176 H83        -1.4070    1.3010   -4.2670 ho        1 MOL      0.414082
    177 O24        -0.3520   -1.6170   -2.2340 oh        1 MOL     -0.885513
    178 H84         0.5470   -1.4420   -1.9270 ho        1 MOL      0.414082
    179 H85        -0.2420   -2.3070   -2.8930 ho        1 MOL      0.414082
@<TRIPOS>BOND
     1    1    2 1   
     2    1    4 1   
     3    1    5 1   
     4    1    6 1   
     5    2    3 2   
     6    2    7 1   
     7    7    8 1   
     8    7   15 1   
     9    8    9 1   
    10    8   11 1   
    11    8   16 1   
    12    9   10 2   
    13    9   19 1   
    14   11   12 1   
    15   11   17 1   
    16   11   18 1   
    17   12   13 1   
    18   12   14 1   
    19   19   20 1   
    20   19   28 1   
    21   20   21 1   
    22   20   23 1   
    23   20   29 1   
    24   21   22 2   
    25   21   41 1   
    26   23   24 1   
    27   23   30 1   
    28   23   31 1   
    29   24   25 1   
    30   24   32 1   
    31   24   33 1   
    32   25   26 1   
    33   25   34 1   
    34   25   35 1   
    35   26   27 1   
    36   26   36 1   
    37   26   37 1   
    38   27   38 1   
    39   27   39 1   
    40   27   40 1   
    41   41   42 1   
    42   41   49 1   
    43   42   43 1   
    44   42   45 1   
    45   42   50 1   
    46   43   44 2   
    47   43   53 1   
    48   45   46 1   
    49   45   51 1   
    50   45   52 1   
    51   46   47 1   
    52   46   48 1   
    53   53   54 1   
    54   53   57 1   
    55   54   55 1   
    56   54   58 1   
    57   54   59 1   
    58   55   56 2   
    59   55   60 1   
    60   60   61 1   
    61   60   68 1   
    62   61   62 1   
    63   61   64 1   
    64   61   69 1   
    65   62   63 2   
    66   62   74 1   
    67   64   65 1   
    68   64   70 1   
    69   64   71 1   
    70   65   66 1   
    71   65   67 2   
    72   66   72 1   
    73   66   73 1   
    74   74   75 1   
    75   74   78 1   
    76   75   76 1   
    77   75   79 1   
    78   75   80 1   
    79   76   77 2   
    80   76   81 1   
    81   81   82 1   
    82   81   93 1   
    83   82   83 1   
    84   82   85 1   
    85   82   94 1   
    86   83   84 2   
    87   83  102 1   
    88   85   86 1   
    89   85   95 1   
    90   85   96 1   
    91   86   87 ar  
    92   86   88 ar  
    93   87   89 ar  
    94   87   97 1   
    95   88   90 ar  
    96   88   98 1   
    97   89   91 ar  
    98   89   99 1   
    99   90   91 ar  
   100   90  100 1   
   101   91   92 1   
   102   92  101 1   
   103  102  103 1   
   104  102  110 1   
   105  103  104 1   
   106  103  106 1   
   107  103  111 1   
   108  104  105 2   
   109  104  121 1   
   110  106  107 1   
   111  106  108 1   
   112  106  112 1   
   113  107  109 1   
   114  107  113 1   
   115  107  114 1   
   116  108  115 1   
   117  108  116 1   
   118  108  117 1   
   119  109  118 1   
   120  109  119 1   
   121  109  120 1   
   122  121  122 1   
   123  121  127 1   
   124  122  123 1   
   125  122  125 1   
   126  122  128 1   
   127  123  124 2   
   128  123  132 1   
   129  125  126 1   
   130  125  129 1   
   131  125  130 1   
   132  126  131 1   
   133  132  133 1   
   134  132  137 1   
   135  133  134 1   
   136  133  136 1   
   137  133  138 1   
   138  134  135 2   
   139  134  142 1   
   140  136  139 1   
   141  136  140 1   
   142  136  141 1   
   143  142  143 1   
   144  142  147 1   
   145  143  144 1   
   146  143  146 1   
   147  143  148 1   
   148  144  145 2   
   149  144  152 1   
   150  146  149 1   
   151  146  150 1   
   152  146  151 1   
   153  152  153 1   
   154  152  161 1   
   155  153  154 1   
   156  153  156 1   
   157  153  162 1   
   158  154  155 2   
   159  154  167 1   
   160  156  157 1   
   161  156  163 1   
   162  156  164 1   
   163  157  158 1   
   164  157  165 1   
   165  157  166 1   
   166  158  159 1   
   167  158  160 1   
   168  167  168 1   
   169  167  172 1   
   170  168  169 1   
   171  168  170 1   
   172  168  171 1   
   173  174  175 1   
   174  174  176 1   
   175  177  178 1   
   176  177  179 1   
@<TRIPOS>SUBSTRUCTURE
     1 MOL         1 TEMP              0 ****  ****    0 ROOT
