@<TRIPOS>MOLECULE
MOL
  189   185     1     0     0
SMALL
resp


@<TRIPOS>ATOM
      1 C1          0.8980   -3.3690    6.0480 c3        1 MOL     -0.463795
      2 C2          1.0200   -2.9730    4.5570 c         1 MOL      0.673283
      3 O1          0.5910   -1.9700    4.0910 o         1 MOL     -0.533621
      4 H1         -0.0470   -3.0010    6.4450 hc        1 MOL      0.120550
      5 H2          0.9320   -4.4550    6.1390 hc        1 MOL      0.120550
      6 H3          1.7230   -2.9320    6.6090 hc        1 MOL      0.120550
      7 N1          1.6400   -3.8730    3.7500 n         1 MOL     -0.495196
      8 C3          2.2260   -3.6820    2.4060 c3        1 MOL      0.090367
      9 C4          1.9400   -4.8370    1.4790 c         1 MOL      0.497635
     10 O2          1.9750   -5.9970    1.8510 o         1 MOL     -0.555449
     11 C5          3.7190   -3.4260    2.5750 c3        1 MOL     -0.095840
     12 C6          4.4120   -3.1500    1.2850 c         1 MOL      0.822179
     13 O3          3.8510   -2.4510    0.3970 o         1 MOL     -0.681054
     14 O4          5.5190   -3.6150    1.2100 o         1 MOL     -0.681054
     15 H4          1.7730   -4.7890    4.1590 hn        1 MOL      0.266704
     16 H5          1.7120   -2.7980    2.0240 h1        1 MOL     -0.011198
     17 H6          4.2130   -4.2870    3.0100 hc        1 MOL     -0.021753
     18 H7          3.9730   -2.5820    3.2310 hc        1 MOL     -0.021753
     19 N2          1.7440   -4.4850    0.2140 n         1 MOL     -0.283811
     20 C7          1.8790   -5.4860   -0.9030 c3        1 MOL     -0.090438
     21 C8          2.7100   -4.9950   -2.1170 c         1 MOL      0.377393
     22 O5          2.7720   -5.7380   -3.1410 o         1 MOL     -0.556222
     23 C9          0.5010   -6.0890   -1.3600 c3        1 MOL      0.262058
     24 C10        -0.2540   -5.0100   -2.1280 c3        1 MOL     -0.040326
     25 C11        -0.1700   -6.7630   -0.1510 c3        1 MOL     -0.271142
     26 C12        -1.7310   -5.3530   -2.5070 c3        1 MOL     -0.186794
     27 H8          1.8260   -3.5030    0.0080 hn        1 MOL      0.277152
     28 H9          2.5050   -6.2560   -0.4710 h1        1 MOL      0.100590
     29 H10         0.7670   -6.8910   -2.0540 hc        1 MOL     -0.053004
     30 H11         0.2860   -4.8250   -3.0610 hc        1 MOL      0.056750
     31 H12        -0.2220   -4.0770   -1.5580 hc        1 MOL      0.056750
     32 H13        -0.5450   -5.9510    0.4790 hc        1 MOL      0.054339
     33 H14        -1.0790   -7.2770   -0.4420 hc        1 MOL      0.054339
     34 H15         0.5100   -7.3360    0.4830 hc        1 MOL      0.054339
     35 H16        -2.2610   -4.4790   -2.8900 hc        1 MOL      0.038309
     36 H17        -1.7180   -6.1700   -3.2350 hc        1 MOL      0.038309
     37 H18        -2.3390   -5.7280   -1.6830 hc        1 MOL      0.038309
     38 N3          3.5150   -3.8990   -2.0660 n         1 MOL     -0.141221
     39 C13         4.3480   -3.4270   -3.1610 c3        1 MOL     -0.087403
     40 C14         5.6930   -2.7810   -2.9200 c         1 MOL      0.427950
     41 O6          6.4990   -2.5970   -3.8420 o         1 MOL     -0.548066
     42 C15         3.4730   -2.5140   -4.0420 c3        1 MOL     -0.272745
     43 C16         2.8310   -1.2940   -3.3770 c         1 MOL      0.791916
     44 O7          3.3800   -0.8600   -2.3870 o         1 MOL     -0.719196
     45 O8          1.7790   -0.8220   -3.8270 o         1 MOL     -0.719196
     46 H19         3.5460   -3.4760   -1.1480 hn        1 MOL      0.135498
     47 H20         4.5090   -4.3390   -3.7480 h1        1 MOL      0.117785
     48 H21         2.6550   -3.0480   -4.5200 hc        1 MOL      0.072153
     49 H22         4.0460   -1.9890   -4.8000 hc        1 MOL      0.072153
     50 N4          6.0990   -2.4560   -1.6740 n         1 MOL     -0.176174
     51 C17         7.3690   -1.8040   -1.3190 c3        1 MOL     -0.081488
     52 C18         7.4960   -0.3300   -1.8240 c         1 MOL      0.406230
     53 O9          8.6300    0.1440   -1.9760 o         1 MOL     -0.598850
     54 H23         5.4380   -2.6350   -0.9270 hn        1 MOL      0.094625
     55 H24         8.2430   -2.3770   -1.6300 h1        1 MOL      0.071464
     56 H25         7.4330   -1.7030   -0.2390 h1        1 MOL      0.071464
     57 N5          6.4140    0.4160   -1.9730 n         1 MOL     -0.055144
     58 C19         6.4960    1.8410   -2.5490 c3        1 MOL     -0.067331
     59 C20         6.7790    2.8970   -1.5190 c         1 MOL      0.449451
     60 O10         7.1680    4.0180   -1.8760 o         1 MOL     -0.534841
     61 C21         5.2750    2.1730   -3.4300 c3        1 MOL     -0.024121
     62 C22         3.9500    2.2830   -2.7160 c         1 MOL      0.717493
     63 O11         3.8450    1.9540   -1.5090 o         1 MOL     -0.693512
     64 O12         2.9990    2.7740   -3.3480 o         1 MOL     -0.693512
     65 H26         5.5300   -0.0570   -1.9250 hn        1 MOL      0.149717
     66 H27         7.3310    1.9690   -3.2350 h1        1 MOL      0.089281
     67 H28         5.2360    1.4220   -4.2150 hc        1 MOL      0.019348
     68 H29         5.4620    3.1150   -3.9600 hc        1 MOL      0.019348
     69 N6          6.4650    2.5780   -0.2220 n         1 MOL     -0.267036
     70 C23         6.8100    3.5120    0.9080 c3        1 MOL      0.024260
     71 C24         5.6170    4.2960    1.5520 c         1 MOL      0.402989
     72 O13         5.8550    5.2190    2.3310 o         1 MOL     -0.571394
     73 H30         6.0980    1.6610   -0.0260 hn        1 MOL      0.147087
     74 H31         7.6700    4.1500    0.6860 h1        1 MOL      0.043049
     75 H32         7.2670    2.8590    1.6570 h1        1 MOL      0.043049
     76 N7          4.3860    3.9670    1.1640 n         1 MOL     -0.017851
     77 C25         3.1170    4.3640    1.7980 c3        1 MOL     -0.121795
     78 C26         2.2850    3.1150    2.1210 c         1 MOL      0.419735
     79 O14         2.3600    2.1310    1.4180 o         1 MOL     -0.453400
     80 C27         2.3460    5.3630    0.8640 c3        1 MOL     -0.092587
     81 C28         3.2280    6.5950    0.3840 c3        1 MOL     -0.489492
     82 C29         2.5970    7.3610   -0.7680 c         1 MOL      0.717457
     83 N8          2.0220    8.5390   -0.6680 n         1 MOL     -0.784118
     84 O15         2.6870    6.9340   -1.9190 o         1 MOL     -0.527230
     85 H33         4.3360    3.1540    0.5570 hn        1 MOL      0.063360
     86 H34         3.3830    4.9260    2.6850 h1        1 MOL      0.069339
     87 H35         1.4080    5.7090    1.2900 hc        1 MOL      0.104853
     88 H36         2.0230    4.8690   -0.0440 hc        1 MOL      0.104853
     89 H37         4.1820    6.3140   -0.0490 hc        1 MOL      0.160400
     90 H38         3.4280    7.2810    1.2050 hc        1 MOL      0.160400
     91 H39         2.0870    8.9880    0.2240 hn        1 MOL      0.337612
     92 H40         1.5780    9.0290   -1.4220 hn        1 MOL      0.337612
     93 N9          1.3290    3.1890    3.0420 n         1 MOL     -0.377579
     94 C30         0.1380    2.2950    3.2160 c3        1 MOL     -0.029790
     95 C31        -0.9970    2.8570    2.3480 c         1 MOL      0.405203
     96 O16        -1.3390    4.0500    2.4450 o         1 MOL     -0.576896
     97 C32        -0.1750    2.0950    4.6980 c3        1 MOL      0.093930
     98 C33        -1.5250    1.4990    4.9320 c3        1 MOL     -0.088348
     99 C34         0.8920    1.2640    5.3920 c3        1 MOL     -0.088348
    100 H41         1.3480    4.0390    3.5820 hn        1 MOL      0.249148
    101 H42         0.4210    1.2940    2.8840 h1        1 MOL      0.250960
    102 H43        -0.1950    3.0610    5.1930 hc        1 MOL      0.004000
    103 H44        -2.3170    2.2180    4.7200 hc        1 MOL      0.004155
    104 H45        -1.4860    0.5910    4.3300 hc        1 MOL      0.004155
    105 H46        -1.7660    1.2000    5.9550 hc        1 MOL      0.004155
    106 H47         1.8730    1.5300    4.9940 hc        1 MOL      0.004155
    107 H48         0.9100    1.3590    6.4780 hc        1 MOL      0.004155
    108 H49         0.7850    0.2210    5.1280 hc        1 MOL      0.004155
    109 N10        -1.5490    2.0990    1.3990 n         1 MOL     -0.093246
    110 C35        -2.7540    2.4410    0.5330 c3        1 MOL      0.199543
    111 C36        -4.0340    1.8630    1.2120 c         1 MOL      0.291597
    112 O17        -4.0050    1.1350    2.1750 o         1 MOL     -0.457659
    113 C37        -2.3350    1.8670   -0.7520 c3        1 MOL     -0.381031
    114 C38        -3.4370    2.1670   -1.7710 c         1 MOL      0.792517
    115 N11        -4.0300    3.3260   -1.8510 n         1 MOL     -0.895536
    116 O18        -3.8150    1.3630   -2.5590 o         1 MOL     -0.528219
    117 H50        -1.1350    1.1910    1.1930 hn        1 MOL      0.106748
    118 H51        -2.9540    3.5110    0.5110 h1        1 MOL     -0.038971
    119 H52        -2.2370    0.7870   -0.7250 hc        1 MOL      0.123665
    120 H53        -1.3920    2.3470   -0.9830 hc        1 MOL      0.123665
    121 H54        -3.7700    4.0540   -1.1950 hn        1 MOL      0.391085
    122 H55        -4.6310    3.4810   -2.6530 hn        1 MOL      0.391085
    123 N12        -5.1610    2.1920    0.6440 n         1 MOL     -0.058722
    124 C39        -6.4440    1.8010    1.1590 c3        1 MOL     -0.011568
    125 C40        -6.7440    0.2980    0.9900 c         1 MOL      0.500468
    126 O19        -7.4540   -0.3110    1.7430 o         1 MOL     -0.581801
    127 C41        -7.5760    2.7530    0.6920 c3        1 MOL     -0.034201
    128 C42        -7.9770    2.7740   -0.7910 ca        1 MOL      0.017959
    129 C43        -8.7180    1.7380   -1.3190 ca        1 MOL     -0.156303
    130 C44        -7.5960    3.8480   -1.6450 ca        1 MOL     -0.156303
    131 C45        -9.1100    1.7880   -2.6990 ca        1 MOL     -0.309062
    132 C46        -7.9930    3.9300   -2.9440 ca        1 MOL     -0.309062
    133 C47        -8.7790    2.8720   -3.4810 ca        1 MOL      0.460807
    134 O20        -9.2440    2.8330   -4.7370 oh        1 MOL     -0.579875
    135 H56        -5.0990    2.8490   -0.1190 hn        1 MOL      0.073674
    136 H57        -6.3540    1.9720    2.2340 h1        1 MOL      0.061703
    137 H58        -7.2010    3.7360    0.9810 hc        1 MOL      0.019615
    138 H59        -8.4350    2.6460    1.3520 hc        1 MOL      0.019615
    139 H60        -9.1030    0.8760   -0.7890 ha        1 MOL      0.131112
    140 H61        -6.8990    4.5960   -1.2800 ha        1 MOL      0.131112
    141 H62        -9.7270    1.0490   -3.1980 ha        1 MOL      0.155928
    142 H63        -7.6600    4.7250   -3.5880 ha        1 MOL      0.155928
    143 H64        -9.5520    1.9610   -4.9840 ho        1 MOL      0.421479
    144 N13        -6.1640   -0.2770   -0.0660 n         1 MOL     -0.034947
    145 C48        -6.2540   -1.6900   -0.3000 c3        1 MOL     -0.079037
    146 C49        -5.3000   -2.6300    0.4440 c         1 MOL      0.315906
    147 O21        -5.4500   -3.8430    0.4520 o         1 MOL     -0.496067
    148 C50        -6.2930   -2.0210   -1.8050 c3        1 MOL      0.006918
    149 C51        -7.6270   -1.4750   -2.5070 c3        1 MOL     -0.249592
    150 C52        -7.6030   -1.9060   -3.9660 c         1 MOL      0.696106
    151 O22        -8.3070   -2.8250   -4.3010 o         1 MOL     -0.730282
    152 O23        -6.8270   -1.2490   -4.7420 o         1 MOL     -0.730282
    153 H65        -5.4190    0.2230   -0.5320 hn        1 MOL      0.085004
    154 H66        -7.2470   -1.9850    0.0440 h1        1 MOL      0.091149
    155 H67        -6.3250   -3.1070   -1.9100 hc        1 MOL      0.055399
    156 H68        -5.3740   -1.6070   -2.2160 hc        1 MOL      0.055399
    157 H69        -7.7720   -0.4090   -2.3010 hc        1 MOL      0.035625
    158 H70        -8.4340   -1.9650   -1.9620 hc        1 MOL      0.035625
    159 N14        -4.3070   -1.9880    1.1280 n         1 MOL     -0.149615
    160 C53        -3.4130   -2.4870    2.1930 c3        1 MOL     -0.002169
    161 C54        -3.9440   -2.1410    3.6070 c         1 MOL      0.469117
    162 O24        -3.7330   -3.0320    4.4470 o         1 MOL     -0.578364
    163 C55        -2.0230   -1.8500    1.9920 c3        1 MOL     -0.027376
    164 C56        -1.5170   -2.0500    0.5730 c3        1 MOL     -0.163688
    165 C57        -0.2280   -1.3830    0.3390 c         1 MOL      0.917134
    166 O25        -0.0570   -0.2870    0.8380 o         1 MOL     -0.839868
    167 O26         0.7040   -1.8950   -0.2560 o         1 MOL     -0.839868
    168 H71        -4.0990   -1.0190    0.9580 hn        1 MOL      0.172423
    169 H72        -3.2840   -3.5690    2.2760 h1        1 MOL      0.069829
    170 H73        -1.3380   -2.4270    2.6040 hc        1 MOL      0.045718
    171 H74        -2.1190   -0.7880    2.2270 hc        1 MOL      0.045718
    172 H75        -2.2430   -1.8180   -0.2140 hc        1 MOL      0.043567
    173 H76        -1.4540   -3.1250    0.4080 hc        1 MOL      0.043567
    174 N15        -4.7020   -1.0810    3.8040 n         1 MOL     -0.132748
    175 C58        -5.3840   -0.7960    5.0740 c3        1 MOL     -0.238636
    176 H77        -6.0250    0.0770    4.9530 h1        1 MOL      0.095827
    177 H78        -5.9910   -1.6550    5.3620 h1        1 MOL      0.095827
    178 H79        -4.6430   -0.5980    5.8490 h1        1 MOL      0.095827
    179 H80        -4.8410   -0.4480    3.0280 hn        1 MOL      0.125067
    180 Ca1         2.5640   -0.0050   -0.1490 Ca        1 MOL      1.742678
    181 O27         5.1080    0.3710    1.2860 oh        1 MOL     -0.882458
    182 H81         4.8620    0.2010    2.1960 ho        1 MOL      0.428882
    183 H82         6.0630    0.3370    1.2810 ho        1 MOL      0.428882
    184 O28         2.4810   -0.4480    2.5960 oh        1 MOL     -0.882458
    185 H83         3.1230   -0.4370    3.3100 ho        1 MOL      0.428882
    186 H84         1.6590   -0.7030    3.0190 ho        1 MOL      0.428882
    187 O29         1.0670    1.5760   -1.6810 oh        1 MOL     -0.882458
    188 H85         1.8470    2.0530   -1.9580 ho        1 MOL      0.428882
    189 H86         0.5750    1.4450   -2.4850 ho        1 MOL      0.428882
@<TRIPOS>BOND
     1    1    2 1   
     2    1    4 1   
     3    1    5 1   
     4    1    6 1   
     5    2    3 2   
     6    2    7 1   
     7    7    8 1   
     8    7   15 1   
     9    8    9 1   
    10    8   11 1   
    11    8   16 1   
    12    9   10 2   
    13    9   19 1   
    14   11   12 1   
    15   11   17 1   
    16   11   18 1   
    17   12   13 1   
    18   12   14 1   
    19   19   20 1   
    20   19   27 1   
    21   20   21 1   
    22   20   23 1   
    23   20   28 1   
    24   21   22 2   
    25   21   38 1   
    26   23   24 1   
    27   23   25 1   
    28   23   29 1   
    29   24   26 1   
    30   24   30 1   
    31   24   31 1   
    32   25   32 1   
    33   25   33 1   
    34   25   34 1   
    35   26   35 1   
    36   26   36 1   
    37   26   37 1   
    38   38   39 1   
    39   38   46 1   
    40   39   40 1   
    41   39   42 1   
    42   39   47 1   
    43   40   41 2   
    44   40   50 1   
    45   42   43 1   
    46   42   48 1   
    47   42   49 1   
    48   43   44 1   
    49   43   45 1   
    50   50   51 1   
    51   50   54 1   
    52   51   52 1   
    53   51   55 1   
    54   51   56 1   
    55   52   53 2   
    56   52   57 1   
    57   57   58 1   
    58   57   65 1   
    59   58   59 1   
    60   58   61 1   
    61   58   66 1   
    62   59   60 2   
    63   59   69 1   
    64   61   62 1   
    65   61   67 1   
    66   61   68 1   
    67   62   63 1   
    68   62   64 1   
    69   69   70 1   
    70   69   73 1   
    71   70   71 1   
    72   70   74 1   
    73   70   75 1   
    74   71   72 2   
    75   71   76 1   
    76   76   77 1   
    77   76   85 1   
    78   77   78 1   
    79   77   80 1   
    80   77   86 1   
    81   78   79 2   
    82   78   93 1   
    83   80   81 1   
    84   80   87 1   
    85   80   88 1   
    86   81   82 1   
    87   81   89 1   
    88   81   90 1   
    89   82   83 1   
    90   82   84 2   
    91   83   91 1   
    92   83   92 1   
    93   93   94 1   
    94   93  100 1   
    95   94   95 1   
    96   94   97 1   
    97   94  101 1   
    98   95   96 2   
    99   95  109 1   
   100   97   98 1   
   101   97   99 1   
   102   97  102 1   
   103   98  103 1   
   104   98  104 1   
   105   98  105 1   
   106   99  106 1   
   107   99  107 1   
   108   99  108 1   
   109  109  110 1   
   110  109  117 1   
   111  110  111 1   
   112  110  113 1   
   113  110  118 1   
   114  111  112 2   
   115  111  123 1   
   116  113  114 1   
   117  113  119 1   
   118  113  120 1   
   119  114  115 1   
   120  114  116 2   
   121  115  121 1   
   122  115  122 1   
   123  123  124 1   
   124  123  135 1   
   125  124  125 1   
   126  124  127 1   
   127  124  136 1   
   128  125  126 2   
   129  125  144 1   
   130  127  128 1   
   131  127  137 1   
   132  127  138 1   
   133  128  129 ar  
   134  128  130 ar  
   135  129  131 ar  
   136  129  139 1   
   137  130  132 ar  
   138  130  140 1   
   139  131  133 ar  
   140  131  141 1   
   141  132  133 ar  
   142  132  142 1   
   143  133  134 1   
   144  134  143 1   
   145  144  145 1   
   146  144  153 1   
   147  145  146 1   
   148  145  148 1   
   149  145  154 1   
   150  146  147 2   
   151  146  159 1   
   152  148  149 1   
   153  148  155 1   
   154  148  156 1   
   155  149  150 1   
   156  149  157 1   
   157  149  158 1   
   158  150  151 1   
   159  150  152 1   
   160  159  160 1   
   161  159  168 1   
   162  160  161 1   
   163  160  163 1   
   164  160  169 1   
   165  161  162 2   
   166  161  174 1   
   167  163  164 1   
   168  163  170 1   
   169  163  171 1   
   170  164  165 1   
   171  164  172 1   
   172  164  173 1   
   173  165  166 1   
   174  165  167 1   
   175  174  175 1   
   176  174  179 1   
   177  175  176 1   
   178  175  177 1   
   179  175  178 1   
   180  181  182 1   
   181  181  183 1   
   182  184  185 1   
   183  184  186 1   
   184  187  188 1   
   185  187  189 1   
@<TRIPOS>SUBSTRUCTURE
     1 MOL         1 TEMP              0 ****  ****    0 ROOT
