@<TRIPOS>MOLECULE
MOL
  189   185     1     0     0
SMALL
resp


@<TRIPOS>ATOM
      1 C1         -0.3280    2.8090    6.1200 c3        1 MOL     -0.369858
      2 C2         -0.7460    2.4260    4.6630 c         1 MOL      0.710557
      3 O1          0.1500    2.5450    3.8500 o         1 MOL     -0.635809
      4 H1         -1.2220    2.9310    6.7330 hc        1 MOL      0.098406
      5 H2          0.2950    2.0190    6.5390 hc        1 MOL      0.098406
      6 H3          0.2320    3.7440    6.1040 hc        1 MOL      0.098406
      7 N1         -1.9720    2.0130    4.2980 n         1 MOL     -0.633941
      8 C3         -2.4080    1.9080    2.8510 c3        1 MOL      0.169097
      9 C4         -2.8920    3.2850    2.2890 c         1 MOL      0.569328
     10 O2         -3.6970    3.9410    2.9160 o         1 MOL     -0.541943
     11 C5         -3.6160    0.9410    2.7330 c3        1 MOL     -0.478816
     12 C6         -4.1620    0.6570    1.3020 c         1 MOL      0.787679
     13 O3         -5.2990    0.1500    1.1530 o         1 MOL     -0.678672
     14 O4         -3.4860    0.9880    0.3240 o         1 MOL     -0.678672
     15 H4         -2.6220    1.7960    5.0340 hn        1 MOL      0.349073
     16 H5         -1.6040    1.4790    2.2590 h1        1 MOL     -0.035855
     17 H6         -4.4590    1.4170    3.2280 hc        1 MOL      0.130649
     18 H7         -3.3270   -0.0180    3.1650 hc        1 MOL      0.130649
     19 N2         -2.3670    3.6070    1.0830 n         1 MOL     -0.291494
     20 C7         -2.5560    4.8750    0.3440 c3        1 MOL     -0.196487
     21 C8         -3.7200    4.8320   -0.6570 c         1 MOL      0.588242
     22 O5         -4.2270    5.8570   -1.1000 o         1 MOL     -0.550099
     23 C9         -1.2460    5.1860   -0.3750 c3        1 MOL      0.056747
     24 C10        -0.1430    5.7150    0.5510 c3        1 MOL      0.048237
     25 C11         1.1080    6.1910   -0.1970 c3        1 MOL     -0.052910
     26 C12         2.1880    6.7520    0.6910 c3        1 MOL     -0.023512
     27 N3          2.4060    6.1290    1.9870 n4        1 MOL     -0.206137
     28 H8         -1.7840    2.9140    0.6410 hn        1 MOL      0.209703
     29 H9         -2.8470    5.6520    1.0460 h1        1 MOL      0.119211
     30 H10        -1.3370    6.0330   -1.0540 hc        1 MOL      0.028561
     31 H11        -0.8560    4.3130   -0.8960 hc        1 MOL      0.028561
     32 H12         0.1530    4.8910    1.1970 hc        1 MOL     -0.004071
     33 H13        -0.6330    6.4450    1.1980 hc        1 MOL     -0.004071
     34 H14         0.7550    6.9570   -0.8810 hc        1 MOL      0.053145
     35 H15         1.3690    5.4350   -0.9380 hc        1 MOL      0.053145
     36 H16         1.9390    7.7850    0.9280 hx        1 MOL      0.070845
     37 H17         3.1240    6.8030    0.1450 hx        1 MOL      0.070845
     38 H18         2.5970    5.1400    1.9480 hn        1 MOL      0.297274
     39 H19         3.2710    6.5150    2.3580 hn        1 MOL      0.297274
     40 H20         1.6920    6.3730    2.6470 hn        1 MOL      0.297274
     41 N4         -4.2080    3.5840   -0.9580 n         1 MOL     -0.325849
     42 C13        -5.1540    3.3690   -2.0480 c3        1 MOL     -0.073454
     43 C14        -6.5790    2.8520   -1.6970 c         1 MOL      0.434356
     44 O6         -7.5440    3.1690   -2.3960 o         1 MOL     -0.507071
     45 C15        -4.5990    2.3520   -3.0580 c3        1 MOL      0.253112
     46 C16        -3.1390    2.4060   -3.2580 c         1 MOL      0.592028
     47 O7         -2.7440    3.2680   -4.0990 o         1 MOL     -0.639005
     48 O8         -2.3330    1.7160   -2.5910 o         1 MOL     -0.639005
     49 H21        -3.8330    2.7910   -0.4650 hn        1 MOL      0.155223
     50 H22        -5.2700    4.3210   -2.5690 h1        1 MOL      0.110383
     51 H23        -5.0880    2.5900   -4.0030 hc        1 MOL     -0.077556
     52 H24        -4.8350    1.3400   -2.7360 hc        1 MOL     -0.077556
     53 N5         -6.7490    2.1740   -0.5220 n         1 MOL     -0.267811
     54 C17        -7.9780    1.5780   -0.1900 c3        1 MOL     -0.292168
     55 C18        -8.0520    0.1900   -0.8370 c         1 MOL      0.500205
     56 O9         -9.1790   -0.2570   -1.0220 o         1 MOL     -0.573754
     57 H25        -5.9480    1.9830    0.0600 hn        1 MOL      0.231428
     58 H26        -8.7880    2.2260   -0.5020 h1        1 MOL      0.153282
     59 H27        -7.9880    1.4010    0.8940 h1        1 MOL      0.153282
     60 N6         -6.9660   -0.4750   -1.2330 n         1 MOL     -0.130619
     61 C19        -6.8450   -1.7700   -1.8160 c3        1 MOL     -0.378352
     62 C20        -6.7450   -2.8790   -0.7480 c         1 MOL      0.498303
     63 O10        -6.7570   -4.0660   -1.0780 o         1 MOL     -0.527314
     64 C21        -5.6770   -1.8050   -2.8460 c3        1 MOL     -0.000717
     65 C22        -4.3250   -1.4760   -2.2870 c         1 MOL      0.636512
     66 O11        -3.5140   -0.8810   -3.0200 o         1 MOL     -0.704309
     67 O12        -3.9450   -1.8240   -1.1170 o         1 MOL     -0.704309
     68 H28        -6.1200    0.0330   -1.0220 hn        1 MOL      0.270121
     69 H29        -7.7760   -2.0310   -2.3120 h1        1 MOL      0.195611
     70 H30        -5.7630   -1.1350   -3.7040 hc        1 MOL      0.052221
     71 H31        -5.6170   -2.7250   -3.4290 hc        1 MOL      0.052221
     72 N7         -6.6610   -2.5740    0.5450 n         1 MOL     -0.199859
     73 C23        -6.4000   -3.4780    1.5860 c3        1 MOL     -0.177198
     74 C24        -5.0950   -4.2650    1.5560 c         1 MOL      0.579334
     75 O13        -5.0270   -5.3310    2.2180 o         1 MOL     -0.584132
     76 H32        -6.6690   -1.5940    0.7680 hn        1 MOL      0.237626
     77 H33        -7.2040   -4.2120    1.5620 h1        1 MOL      0.091890
     78 H34        -6.4420   -2.9080    2.5100 h1        1 MOL      0.091890
     79 N8         -4.0230   -3.9100    0.7860 n         1 MOL     -0.218031
     80 C25        -2.7370   -4.5950    0.7660 c3        1 MOL     -0.477489
     81 C26        -1.5600   -3.6270    0.8150 c         1 MOL      0.952760
     82 O14        -1.7040   -2.4540    0.4710 o         1 MOL     -0.749684
     83 C27        -2.5360   -5.4150   -0.5670 c3        1 MOL      0.569872
     84 C28        -3.2100   -6.7970   -0.4420 c3        1 MOL     -0.528227
     85 O15        -3.1030   -4.7840   -1.6560 oh        1 MOL     -0.629030
     86 H35        -4.1320   -3.0370    0.2810 hn        1 MOL      0.187576
     87 H36        -2.7030   -5.1760    1.6900 h1        1 MOL      0.170777
     88 H37        -1.4840   -5.5290   -0.8230 h1        1 MOL     -0.044465
     89 H38        -3.2450   -3.8850   -1.3600 ho        1 MOL      0.437373
     90 H39        -2.6100   -7.4430    0.1880 hc        1 MOL      0.132391
     91 H40        -4.1890   -6.8210    0.0320 hc        1 MOL      0.132391
     92 H41        -3.3800   -7.3220   -1.3850 hc        1 MOL      0.132391
     93 N9         -0.3980   -4.1580    1.2470 n         1 MOL     -0.715417
     94 C29         0.8130   -3.3270    1.3710 c3        1 MOL      0.307036
     95 C30         1.9580   -3.6730    0.4280 c         1 MOL      0.294234
     96 O16         2.5240   -4.8060    0.4350 o         1 MOL     -0.539484
     97 C31         1.2860   -3.2610    2.9260 c3        1 MOL      0.026723
     98 C32         0.2810   -2.6000    3.8610 c3        1 MOL     -0.295103
     99 C33         2.7160   -2.7510    3.0930 c3        1 MOL     -0.162009
    100 C34         0.1100   -1.1430    3.6380 c3        1 MOL     -0.116706
    101 H42        -0.3540   -5.0880    1.6390 hn        1 MOL      0.324760
    102 H43         0.4930   -2.3280    1.0900 h1        1 MOL      0.091119
    103 H44         1.3550   -4.2880    3.2620 hc        1 MOL      0.026007
    104 H45         0.6530   -2.7190    4.8840 hc        1 MOL      0.088237
    105 H46        -0.6650   -3.1240    3.7600 hc        1 MOL      0.088237
    106 H47         2.9610   -1.7080    2.8570 hc        1 MOL      0.026521
    107 H48         3.0490   -2.7300    4.1350 hc        1 MOL      0.026521
    108 H49         3.4530   -3.3240    2.5340 hc        1 MOL      0.026521
    109 H50        -0.5150   -0.7790    4.4570 hc        1 MOL      0.079218
    110 H51         1.0770   -0.6960    3.8380 hc        1 MOL      0.079218
    111 H52        -0.2940   -0.8750    2.6680 hc        1 MOL      0.079218
    112 N10         2.4170   -2.6560   -0.3040 n         1 MOL      0.029098
    113 C35         3.5280   -2.7910   -1.2870 c3        1 MOL     -0.041206
    114 C36         4.8020   -2.4900   -0.4430 c         1 MOL      0.227343
    115 O17         4.6800   -1.9140    0.6320 o         1 MOL     -0.217827
    116 C37         3.3590   -1.8820   -2.4400 c3        1 MOL      0.388210
    117 C38         2.2110   -2.1620   -3.3750 c3        1 MOL     -0.412271
    118 O18         3.1480   -0.5800   -1.9250 oh        1 MOL     -0.594695
    119 H53         1.9480   -1.7570   -0.2930 hn        1 MOL     -0.031724
    120 H54         3.7020   -3.8130   -1.6180 h1        1 MOL      0.054996
    121 H55         4.3260   -1.8810   -2.9350 h1        1 MOL     -0.004332
    122 H56         2.3550   -0.5670   -1.3820 ho        1 MOL      0.427554
    123 H57         2.2900   -1.6990   -4.3590 hc        1 MOL      0.106308
    124 H58         2.3300   -3.2440   -3.4920 hc        1 MOL      0.106308
    125 H59         1.2190   -1.9750   -2.9850 hc        1 MOL      0.106308
    126 N11         6.0350   -2.6800   -0.9220 n         1 MOL     -0.180263
    127 C39         7.2290   -2.4060   -0.0990 c3        1 MOL     -0.178489
    128 C40         7.4360   -0.9560    0.1930 c         1 MOL      0.284050
    129 O19         7.9670   -0.6280    1.2820 o         1 MOL     -0.473721
    130 C41         8.5350   -2.7610   -0.9060 c3        1 MOL      0.317544
    131 C42         8.8390   -4.2380   -1.0280 c3        1 MOL     -0.461774
    132 O20         8.3740   -2.2930   -2.2160 oh        1 MOL     -0.693735
    133 H60         6.1070   -3.1270   -1.8170 hn        1 MOL      0.246709
    134 H61         7.2500   -2.9850    0.8210 h1        1 MOL      0.169522
    135 H62         9.3520   -2.1710   -0.4830 h1        1 MOL      0.061819
    136 H63         9.1960   -2.2890   -2.7220 ho        1 MOL      0.430962
    137 H64         8.9620   -4.7490   -0.0690 hc        1 MOL      0.133434
    138 H65         8.0740   -4.7600   -1.6000 hc        1 MOL      0.133434
    139 H66         9.7370   -4.2350   -1.6440 hc        1 MOL      0.133434
    140 N12         6.9580   -0.0900   -0.6800 n         1 MOL     -0.141943
    141 C43         7.1470    1.3620   -0.4290 c3        1 MOL     -0.014093
    142 C44         6.2980    1.8490    0.7310 c         1 MOL      0.325816
    143 O21         6.6730    2.7350    1.4380 o         1 MOL     -0.500071
    144 C45         6.6500    2.2030   -1.5830 c3        1 MOL     -0.197676
    145 C46         7.2540    1.6140   -2.8450 c3        1 MOL     -0.053703
    146 C47         6.9580    2.5190   -4.1000 c3        1 MOL      0.057171
    147 C48         7.8630    2.0330   -5.3040 c3        1 MOL     -0.227993
    148 N13         9.3130    2.3300   -5.1250 n4        1 MOL     -0.139523
    149 H67         6.6130   -0.4730   -1.5400 hn        1 MOL      0.180836
    150 H68         8.1730    1.6870   -0.2870 h1        1 MOL      0.110049
    151 H69         6.8190    3.2720   -1.4930 hc        1 MOL      0.089086
    152 H70         5.5860    2.0940   -1.7790 hc        1 MOL      0.089086
    153 H71         6.7580    0.6510   -3.0140 hc        1 MOL      0.044754
    154 H72         8.3320    1.5360   -2.7100 hc        1 MOL      0.044754
    155 H73         7.0600    3.6000   -3.9510 hc        1 MOL      0.049179
    156 H74         5.9380    2.4380   -4.4890 hc        1 MOL      0.049179
    157 H75         7.5980    2.6730   -6.1450 hx        1 MOL      0.149384
    158 H76         7.6130    0.9880   -5.4900 hx        1 MOL      0.149384
    159 H77         9.5000    3.2760   -4.8210 hn        1 MOL      0.240795
    160 H78         9.7920    1.7490   -4.4590 hn        1 MOL      0.240795
    161 H79         9.8320    2.2320   -5.9950 hn        1 MOL      0.240795
    162 N14         5.1720    1.1490    1.0170 n         1 MOL     -0.070906
    163 C49         4.1910    1.3820    2.0580 c3        1 MOL     -0.078612
    164 C50         4.6500    0.7470    3.3620 c         1 MOL      0.513910
    165 O22         4.5620    1.2940    4.4120 o         1 MOL     -0.562368
    166 C51         2.7870    0.8740    1.7250 c3        1 MOL      0.064463
    167 C52         2.0840    1.6020    0.6180 c3        1 MOL      0.056293
    168 C53         0.7940    0.8770    0.1740 c         1 MOL      0.728252
    169 O23         0.9550   -0.3000   -0.1860 o         1 MOL     -0.692511
    170 O24        -0.2560    1.5480    0.0340 o         1 MOL     -0.692511
    171 H80         4.9130    0.4570    0.3360 hn        1 MOL      0.095583
    172 H81         4.1020    2.4430    2.3210 h1        1 MOL      0.028633
    173 H82         2.2260    0.9190    2.6630 hc        1 MOL      0.011269
    174 H83         2.8270   -0.1680    1.4100 hc        1 MOL      0.011269
    175 H84         2.7600    1.6680   -0.2310 hc        1 MOL     -0.062151
    176 H85         1.8180    2.6410    0.8380 hc        1 MOL     -0.062151
    177 N15         5.1860   -0.4810    3.2740 n         1 MOL     -0.038663
    178 C54         5.8630   -1.1030    4.4470 c3        1 MOL     -0.268902
    179 H86         6.9430   -1.0870    4.2940 h1        1 MOL      0.103049
    180 H87         5.6150   -0.5430    5.3490 h1        1 MOL      0.103049
    181 H88         5.5270   -2.1350    4.5560 h1        1 MOL      0.103049
    182 H89         5.0980   -0.9720    2.4000 hn        1 MOL      0.074408
    183 Ca1        -1.8080   -0.2470   -1.0020 Ca        1 MOL      1.761367
    184 O25        -0.2640    0.3070   -3.1640 oh        1 MOL     -0.906986
    185 H90         0.1420    0.1660   -4.0230 ho        1 MOL      0.410921
    186 H91        -1.0930    0.7430   -3.3540 ho        1 MOL      0.410921
    187 O26        -1.3240   -2.6400   -2.5310 oh        1 MOL     -0.906986
    188 H92        -2.1630   -2.4890   -2.9730 ho        1 MOL      0.410921
    189 H93        -0.8500   -3.2270   -3.1100 ho        1 MOL      0.410921
@<TRIPOS>BOND
     1    1    2 1   
     2    1    4 1   
     3    1    5 1   
     4    1    6 1   
     5    2    3 2   
     6    2    7 1   
     7    7    8 1   
     8    7   15 1   
     9    8    9 1   
    10    8   11 1   
    11    8   16 1   
    12    9   10 2   
    13    9   19 1   
    14   11   12 1   
    15   11   17 1   
    16   11   18 1   
    17   12   13 1   
    18   12   14 1   
    19   19   20 1   
    20   19   28 1   
    21   20   21 1   
    22   20   23 1   
    23   20   29 1   
    24   21   22 2   
    25   21   41 1   
    26   23   24 1   
    27   23   30 1   
    28   23   31 1   
    29   24   25 1   
    30   24   32 1   
    31   24   33 1   
    32   25   26 1   
    33   25   34 1   
    34   25   35 1   
    35   26   27 1   
    36   26   36 1   
    37   26   37 1   
    38   27   38 1   
    39   27   39 1   
    40   27   40 1   
    41   41   42 1   
    42   41   49 1   
    43   42   43 1   
    44   42   45 1   
    45   42   50 1   
    46   43   44 2   
    47   43   53 1   
    48   45   46 1   
    49   45   51 1   
    50   45   52 1   
    51   46   47 1   
    52   46   48 1   
    53   53   54 1   
    54   53   57 1   
    55   54   55 1   
    56   54   58 1   
    57   54   59 1   
    58   55   56 2   
    59   55   60 1   
    60   60   61 1   
    61   60   68 1   
    62   61   62 1   
    63   61   64 1   
    64   61   69 1   
    65   62   63 2   
    66   62   72 1   
    67   64   65 1   
    68   64   70 1   
    69   64   71 1   
    70   65   66 1   
    71   65   67 1   
    72   72   73 1   
    73   72   76 1   
    74   73   74 1   
    75   73   77 1   
    76   73   78 1   
    77   74   75 2   
    78   74   79 1   
    79   79   80 1   
    80   79   86 1   
    81   80   81 1   
    82   80   83 1   
    83   80   87 1   
    84   81   82 2   
    85   81   93 1   
    86   83   84 1   
    87   83   85 1   
    88   83   88 1   
    89   84   90 1   
    90   84   91 1   
    91   84   92 1   
    92   85   89 1   
    93   93   94 1   
    94   93  101 1   
    95   94   95 1   
    96   94   97 1   
    97   94  102 1   
    98   95   96 2   
    99   95  112 1   
   100   97   98 1   
   101   97   99 1   
   102   97  103 1   
   103   98  100 1   
   104   98  104 1   
   105   98  105 1   
   106   99  106 1   
   107   99  107 1   
   108   99  108 1   
   109  100  109 1   
   110  100  110 1   
   111  100  111 1   
   112  112  113 1   
   113  112  119 1   
   114  113  114 1   
   115  113  116 1   
   116  113  120 1   
   117  114  115 2   
   118  114  126 1   
   119  116  117 1   
   120  116  118 1   
   121  116  121 1   
   122  117  123 1   
   123  117  124 1   
   124  117  125 1   
   125  118  122 1   
   126  126  127 1   
   127  126  133 1   
   128  127  128 1   
   129  127  130 1   
   130  127  134 1   
   131  128  129 2   
   132  128  140 1   
   133  130  131 1   
   134  130  132 1   
   135  130  135 1   
   136  131  137 1   
   137  131  138 1   
   138  131  139 1   
   139  132  136 1   
   140  140  141 1   
   141  140  149 1   
   142  141  142 1   
   143  141  144 1   
   144  141  150 1   
   145  142  143 2   
   146  142  162 1   
   147  144  145 1   
   148  144  151 1   
   149  144  152 1   
   150  145  146 1   
   151  145  153 1   
   152  145  154 1   
   153  146  147 1   
   154  146  155 1   
   155  146  156 1   
   156  147  148 1   
   157  147  157 1   
   158  147  158 1   
   159  148  159 1   
   160  148  160 1   
   161  148  161 1   
   162  162  163 1   
   163  162  171 1   
   164  163  164 1   
   165  163  166 1   
   166  163  172 1   
   167  164  165 2   
   168  164  177 1   
   169  166  167 1   
   170  166  173 1   
   171  166  174 1   
   172  167  168 1   
   173  167  175 1   
   174  167  176 1   
   175  168  169 1   
   176  168  170 1   
   177  177  178 1   
   178  177  182 1   
   179  178  179 1   
   180  178  180 1   
   181  178  181 1   
   182  184  185 1   
   183  184  186 1   
   184  187  188 1   
   185  187  189 1   
@<TRIPOS>SUBSTRUCTURE
     1 MOL         1 TEMP              0 ****  ****    0 ROOT
