@<TRIPOS>MOLECULE
MOL
  189   185     1     0     0
SMALL
resp


@<TRIPOS>ATOM
      1 C1         -0.3760    3.5210    5.4440 c3        1 MOL     -0.322214
      2 C2         -0.4910    2.8180    4.0820 c         1 MOL      0.657617
      3 O1          0.3270    3.0840    3.2080 o         1 MOL     -0.573474
      4 H1          0.0520    2.8330    6.1730 hc        1 MOL      0.079477
      5 H2          0.2690    4.3960    5.3490 hc        1 MOL      0.079477
      6 H3         -1.3660    3.8330    5.7780 hc        1 MOL      0.079477
      7 N1         -1.5460    2.0040    3.8470 n         1 MOL     -0.491987
      8 C3         -2.0930    1.6260    2.5270 c3        1 MOL      0.053221
      9 C4         -2.5900    2.8970    1.8600 c         1 MOL      0.421077
     10 O2         -3.6320    3.3450    2.2910 o         1 MOL     -0.542755
     11 C5         -3.1710    0.5510    2.7520 c3        1 MOL     -0.052851
     12 C6         -3.9020    0.1290    1.4690 c         1 MOL      0.720810
     13 O3         -5.0100   -0.4020    1.4780 o         1 MOL     -0.662468
     14 O4         -3.3060    0.3100    0.3230 o         1 MOL     -0.662468
     15 H4         -2.0640    1.7790    4.6790 hn        1 MOL      0.296858
     16 H5         -1.2330    1.1850    2.0120 h1        1 MOL     -0.048432
     17 H6         -3.8610    0.8900    3.5230 hc        1 MOL      0.027862
     18 H7         -2.6790   -0.3110    3.2070 hc        1 MOL      0.027862
     19 N2         -1.9670    3.4070    0.7780 n         1 MOL     -0.097852
     20 C7         -2.2950    4.7830    0.2560 c3        1 MOL     -0.024879
     21 C8         -3.3640    4.6580   -0.8510 c         1 MOL      0.324514
     22 O5         -3.9450    5.6790   -1.2190 o         1 MOL     -0.570258
     23 C9         -0.9690    5.5450   -0.1970 c3        1 MOL     -0.021621
     24 C10         0.0750    5.7360    0.8670 c3        1 MOL      0.003170
     25 C11        -0.3410    6.6500    1.9550 c3        1 MOL     -0.037432
     26 C12        -0.5020    8.1220    1.4410 c3        1 MOL     -0.021596
     27 N3         -1.0650    9.0230    2.5110 n4        1 MOL     -0.313311
     28 H8         -1.2270    2.8710    0.3570 hn        1 MOL      0.237500
     29 H9         -2.7180    5.2730    1.1390 h1        1 MOL      0.062646
     30 H10        -1.1480    6.5190   -0.6450 hc        1 MOL      0.020708
     31 H11        -0.5220    4.9440   -0.9860 hc        1 MOL      0.020708
     32 H12         0.9060    6.2980    0.4330 hc        1 MOL      0.015618
     33 H13         0.4120    4.8060    1.3210 hc        1 MOL      0.015618
     34 H14         0.4200    6.5740    2.7320 hc        1 MOL      0.043751
     35 H15        -1.2740    6.2600    2.3560 hc        1 MOL      0.043751
     36 H16        -1.3230    8.0730    0.7270 hx        1 MOL      0.107483
     37 H17         0.3920    8.5380    0.9970 hx        1 MOL      0.107483
     38 H18        -1.1090    9.9560    2.1390 hn        1 MOL      0.309886
     39 H19        -1.9420    8.7660    2.9550 hn        1 MOL      0.309886
     40 H20        -0.5300    9.1820    3.3490 hn        1 MOL      0.309886
     41 N4         -3.5690    3.5290   -1.5560 n         1 MOL     -0.034855
     42 C13        -4.5940    3.4290   -2.6590 c3        1 MOL      0.027883
     43 C14        -5.7180    2.4440   -2.3150 c         1 MOL      0.404104
     44 O6         -6.5100    1.9830   -3.1600 o         1 MOL     -0.482489
     45 C15        -3.9220    3.0320   -3.9310 c3        1 MOL     -0.232657
     46 C16        -2.9300    1.9280   -3.8710 c         1 MOL      0.825331
     47 O7         -2.3540    1.5920   -4.9160 o         1 MOL     -0.715940
     48 O8         -2.6440    1.2760   -2.8440 o         1 MOL     -0.715940
     49 H21        -3.0680    2.6840   -1.3150 hn        1 MOL     -0.005969
     50 H22        -5.0040    4.4260   -2.8120 h1        1 MOL      0.100630
     51 H23        -3.3720    3.9040   -4.2910 hc        1 MOL      0.051809
     52 H24        -4.7040    2.7440   -4.6380 hc        1 MOL      0.051809
     53 N5         -5.8700    2.1830   -1.0110 n         1 MOL     -0.280648
     54 C17        -7.0120    1.5710   -0.3490 c3        1 MOL     -0.178268
     55 C18        -7.3660    0.1270   -0.8740 c         1 MOL      0.518793
     56 O9         -8.5770   -0.1890   -0.8870 o         1 MOL     -0.582858
     57 H25        -5.2180    2.5670   -0.3350 hn        1 MOL      0.234152
     58 H26        -7.8670    2.2340   -0.4700 h1        1 MOL      0.108684
     59 H27        -6.7320    1.4080    0.6930 h1        1 MOL      0.108684
     60 N6         -6.3930   -0.6610   -1.3400 n         1 MOL     -0.126062
     61 C19        -6.6780   -2.1160   -1.8070 c3        1 MOL     -0.116013
     62 C20        -6.6840   -3.0820   -0.6340 c         1 MOL      0.462726
     63 O10        -7.0810   -4.2560   -0.7430 o         1 MOL     -0.557976
     64 C21        -5.6450   -2.5820   -2.8640 c3        1 MOL     -0.185656
     65 C22        -4.1760   -2.3570   -2.4710 c         1 MOL      0.673388
     66 O11        -3.7060   -3.0140   -1.5050 o         1 MOL     -0.663870
     67 O12        -3.4180   -1.5550   -3.0770 o         1 MOL     -0.663870
     68 H28        -5.4740   -0.3430   -1.1170 hn        1 MOL      0.099988
     69 H29        -7.6860   -2.2280   -2.2200 h1        1 MOL      0.148541
     70 H30        -5.7510   -2.1490   -3.8530 hc        1 MOL      0.075759
     71 H31        -5.6360   -3.6710   -2.9250 hc        1 MOL      0.075759
     72 N7         -6.1960   -2.6680    0.5530 n         1 MOL     -0.172529
     73 C23        -6.2370   -3.3730    1.8480 c3        1 MOL     -0.259807
     74 C24        -4.9770   -4.1760    2.0800 c         1 MOL      0.492258
     75 O13        -4.7210   -4.6610    3.2040 o         1 MOL     -0.570469
     76 H32        -5.7620   -1.7640    0.6610 hn        1 MOL      0.196496
     77 H33        -7.0250   -4.0980    1.6570 h1        1 MOL      0.134208
     78 H34        -6.5730   -2.7070    2.6390 h1        1 MOL      0.134208
     79 N8         -4.0330   -4.1880    1.0850 n         1 MOL     -0.026789
     80 C25        -2.6710   -4.7380    1.2040 c3        1 MOL     -0.365425
     81 C26        -1.5580   -3.5820    1.3100 c         1 MOL      0.924755
     82 O14        -1.7110   -2.4690    0.7520 o         1 MOL     -0.766823
     83 C27        -2.3610   -5.6850    0.0700 c3        1 MOL      0.399675
     84 C28        -3.3400   -6.8790   -0.0610 c3        1 MOL     -0.433476
     85 O15        -2.1390   -5.1040   -1.2130 oh        1 MOL     -0.569784
     86 H35        -4.3430   -3.6790    0.2700 hn        1 MOL      0.110167
     87 H36        -2.6690   -5.3330    2.1230 h1        1 MOL      0.119193
     88 H37        -1.3360   -6.0250    0.2180 h1        1 MOL      0.008834
     89 H38        -2.7090   -4.3360   -1.2030 ho        1 MOL      0.381335
     90 H39        -3.0560   -7.4410   -0.9570 hc        1 MOL      0.109570
     91 H40        -3.4230   -7.5550    0.7880 hc        1 MOL      0.109570
     92 H41        -4.3330   -6.4360   -0.1820 hc        1 MOL      0.109570
     93 N9         -0.4050   -3.8440    2.0000 n         1 MOL     -0.850242
     94 C29         0.7580   -2.9670    2.0710 c3        1 MOL      0.277946
     95 C30         1.8140   -3.4250    1.0780 c         1 MOL      0.720633
     96 O16         2.2180   -4.5600    1.2570 o         1 MOL     -0.629958
     97 C31         1.2500   -2.6630    3.4260 c3        1 MOL     -0.000462
     98 C32         0.4040   -1.4280    3.8920 c3        1 MOL      0.013731
     99 C33         2.7550   -2.4230    3.6550 c3        1 MOL     -0.142551
    100 C34         0.6490   -0.9100    5.2930 c3        1 MOL     -0.168222
    101 H42        -0.3080   -4.7620    2.4050 hn        1 MOL      0.356962
    102 H43         0.5120   -1.9850    1.6590 h1        1 MOL     -0.019178
    103 H44         1.0910   -3.5400    4.0490 hc        1 MOL      0.045426
    104 H45        -0.6520   -1.6750    3.8800 hc        1 MOL      0.048667
    105 H46         0.5490   -0.6110    3.1810 hc        1 MOL      0.048667
    106 H47         2.8950   -2.0680    4.6760 hc        1 MOL      0.007165
    107 H48         3.3160   -3.3020    3.3470 hc        1 MOL      0.007165
    108 H49         3.0100   -1.6960    2.8950 hc        1 MOL      0.007165
    109 H50         1.4890   -0.2120    5.2360 hc        1 MOL      0.041289
    110 H51        -0.2050   -0.3250    5.6180 hc        1 MOL      0.041289
    111 H52         0.6900   -1.7450    5.9910 hc        1 MOL      0.041289
    112 N10         2.3090   -2.6050    0.1670 n         1 MOL     -0.248116
    113 C35         3.5520   -2.9190   -0.6510 c3        1 MOL     -0.112790
    114 C36         4.9010   -2.4940    0.0380 c         1 MOL      0.265556
    115 O17         4.9370   -1.6860    1.0170 o         1 MOL     -0.325941
    116 C37         3.6000   -2.1010   -1.9680 c3        1 MOL      0.281801
    117 C38         2.5270   -2.4640   -3.0040 c3        1 MOL     -0.627368
    118 O18         3.4600   -0.8170   -1.7560 oh        1 MOL     -0.458100
    119 H53         1.8640   -1.6970    0.0740 hn        1 MOL      0.182680
    120 H54         3.7090   -3.9510   -0.9620 h1        1 MOL      0.087773
    121 H55         4.5890   -2.1990   -2.4180 h1        1 MOL      0.025714
    122 H56         2.5320   -0.6070   -1.6320 ho        1 MOL      0.325349
    123 H57         1.5480   -2.0890   -2.6980 hc        1 MOL      0.180409
    124 H58         2.6300   -2.0470   -4.0050 hc        1 MOL      0.180409
    125 H59         2.4570   -3.5440   -2.9670 hc        1 MOL      0.180409
    126 N11         5.9970   -3.0140   -0.5080 n         1 MOL     -0.138514
    127 C39         7.3960   -2.5520   -0.1010 c3        1 MOL     -0.434442
    128 C40         7.6020   -1.0860   -0.2180 c         1 MOL      0.530784
    129 O19         8.5540   -0.5630    0.3790 o         1 MOL     -0.497158
    130 C41         8.5140   -3.1730   -0.9020 c3        1 MOL      0.373699
    131 C42         8.6290   -4.6810   -0.6130 c3        1 MOL     -0.436654
    132 O20         8.2960   -3.1300   -2.3210 oh        1 MOL     -0.674317
    133 H60         5.8790   -3.7980   -1.1350 hn        1 MOL      0.269435
    134 H61         7.5430   -2.7870    0.9590 h1        1 MOL      0.225942
    135 H62         9.5040   -2.7140   -0.7800 h1        1 MOL      0.056843
    136 H63         9.0450   -3.5630   -2.7250 ho        1 MOL      0.422529
    137 H64         9.4980   -5.1110   -1.0940 hc        1 MOL      0.122223
    138 H65         8.7090   -4.7060    0.4740 hc        1 MOL      0.122223
    139 H66         7.7480   -5.2060   -1.0060 hc        1 MOL      0.122223
    140 N12         6.8080   -0.3430   -1.0340 n         1 MOL     -0.320082
    141 C43         6.7200    1.1080   -1.0490 c3        1 MOL     -0.027818
    142 C44         6.0090    1.6900    0.2120 c         1 MOL      0.319180
    143 O21         6.6430    2.4940    0.9270 o         1 MOL     -0.510138
    144 C45         6.1390    1.5690   -2.4250 c3        1 MOL      0.037781
    145 C46         6.4220    2.9860   -2.7020 c3        1 MOL      0.130577
    146 C47         6.0040    3.6290   -4.0990 c3        1 MOL     -0.072545
    147 C48         6.3410    2.7170   -5.2860 c3        1 MOL     -0.134947
    148 N13         7.8180    2.5750   -5.5300 n4        1 MOL     -0.233697
    149 H67         6.1820   -0.8570   -1.6310 hn        1 MOL      0.220954
    150 H68         7.7210    1.5350   -0.9970 h1        1 MOL      0.088832
    151 H69         5.1090    1.2580   -2.5370 hc        1 MOL     -0.012893
    152 H70         6.7640    1.0030   -3.1180 hc        1 MOL     -0.012893
    153 H71         7.5030    3.1020   -2.6950 hc        1 MOL     -0.027434
    154 H72         6.0070    3.5780   -1.8860 hc        1 MOL     -0.027434
    155 H73         6.4460    4.6230   -4.1020 hc        1 MOL      0.072090
    156 H74         4.9510    3.9060   -4.1270 hc        1 MOL      0.072090
    157 H75         5.9400    3.1650   -6.1970 hx        1 MOL      0.132493
    158 H76         5.9240    1.7290   -5.1270 hx        1 MOL      0.132493
    159 H77         8.3170    3.4430   -5.4760 hn        1 MOL      0.298082
    160 H78         8.2580    1.9340   -4.8900 hn        1 MOL      0.298082
    161 H79         8.0600    2.1890   -6.4390 hn        1 MOL      0.298082
    162 N14         4.8690    1.1440    0.5590 n         1 MOL     -0.042362
    163 C49         3.9570    1.6280    1.6570 c3        1 MOL     -0.153365
    164 C50         4.5230    1.3970    3.0740 c         1 MOL      0.396882
    165 O22         4.2800    2.1650    4.0120 o         1 MOL     -0.515181
    166 C51         2.5690    0.9900    1.4930 c3        1 MOL      0.185093
    167 C52         1.8430    1.6490    0.3210 c3        1 MOL      0.021388
    168 C53         0.6790    0.8360   -0.2300 c         1 MOL      0.596692
    169 O23        -0.4070    1.3710   -0.3440 o         1 MOL     -0.622139
    170 O24         0.7930   -0.3780   -0.5880 o         1 MOL     -0.622139
    171 H80         4.5090    0.4210   -0.0420 hn        1 MOL      0.110221
    172 H81         3.8470    2.7190    1.6090 h1        1 MOL      0.092763
    173 H82         1.8810    1.0220    2.3380 hc        1 MOL      0.009344
    174 H83         2.7730   -0.0240    1.1640 hc        1 MOL      0.009344
    175 H84         2.5400    1.8820   -0.4850 hc        1 MOL     -0.036511
    176 H85         1.4860    2.6180    0.6860 hc        1 MOL     -0.036511
    177 N15         5.2740    0.2660    3.1050 n         1 MOL     -0.027776
    178 C54         5.9720   -0.2210    4.3040 c3        1 MOL     -0.465164
    179 H86         5.2620   -0.7320    4.9530 h1        1 MOL      0.149390
    180 H87         6.7600   -0.9140    4.0100 h1        1 MOL      0.149390
    181 H88         6.4090    0.6230    4.8380 h1        1 MOL      0.149390
    182 H89         5.4430   -0.3280    2.3090 hn        1 MOL      0.170174
    183 Ca1        -1.7710   -0.6720   -1.2870 Ca        1 MOL      1.732211
    184 O25        -0.5390   -3.0560   -2.1150 oh        1 MOL     -0.926519
    185 H90        -0.3460   -2.9910   -3.0580 ho        1 MOL      0.402304
    186 H91        -1.2000   -3.7410   -2.0520 ho        1 MOL      0.402304
    187 O26        -0.4890    0.1310   -3.7570 oh        1 MOL     -0.926519
    188 H92         0.2090    0.2780   -4.3990 ho        1 MOL      0.402304
    189 H93        -1.2680    0.5310   -4.1570 ho        1 MOL      0.402304
@<TRIPOS>BOND
     1    1    2 1   
     2    1    4 1   
     3    1    5 1   
     4    1    6 1   
     5    2    3 2   
     6    2    7 1   
     7    7    8 1   
     8    7   15 1   
     9    8    9 1   
    10    8   11 1   
    11    8   16 1   
    12    9   10 2   
    13    9   19 1   
    14   11   12 1   
    15   11   17 1   
    16   11   18 1   
    17   12   13 1   
    18   12   14 1   
    19   19   20 1   
    20   19   28 1   
    21   20   21 1   
    22   20   23 1   
    23   20   29 1   
    24   21   22 2   
    25   21   41 1   
    26   23   24 1   
    27   23   30 1   
    28   23   31 1   
    29   24   25 1   
    30   24   32 1   
    31   24   33 1   
    32   25   26 1   
    33   25   34 1   
    34   25   35 1   
    35   26   27 1   
    36   26   36 1   
    37   26   37 1   
    38   27   38 1   
    39   27   39 1   
    40   27   40 1   
    41   41   42 1   
    42   41   49 1   
    43   42   43 1   
    44   42   45 1   
    45   42   50 1   
    46   43   44 2   
    47   43   53 1   
    48   45   46 1   
    49   45   51 1   
    50   45   52 1   
    51   46   47 1   
    52   46   48 1   
    53   53   54 1   
    54   53   57 1   
    55   54   55 1   
    56   54   58 1   
    57   54   59 1   
    58   55   56 2   
    59   55   60 1   
    60   60   61 1   
    61   60   68 1   
    62   61   62 1   
    63   61   64 1   
    64   61   69 1   
    65   62   63 2   
    66   62   72 1   
    67   64   65 1   
    68   64   70 1   
    69   64   71 1   
    70   65   66 1   
    71   65   67 1   
    72   72   73 1   
    73   72   76 1   
    74   73   74 1   
    75   73   77 1   
    76   73   78 1   
    77   74   75 2   
    78   74   79 1   
    79   79   80 1   
    80   79   86 1   
    81   80   81 1   
    82   80   83 1   
    83   80   87 1   
    84   81   82 2   
    85   81   93 1   
    86   83   84 1   
    87   83   85 1   
    88   83   88 1   
    89   84   90 1   
    90   84   91 1   
    91   84   92 1   
    92   85   89 1   
    93   93   94 1   
    94   93  101 1   
    95   94   95 1   
    96   94   97 1   
    97   94  102 1   
    98   95   96 2   
    99   95  112 1   
   100   97   98 1   
   101   97   99 1   
   102   97  103 1   
   103   98  100 1   
   104   98  104 1   
   105   98  105 1   
   106   99  106 1   
   107   99  107 1   
   108   99  108 1   
   109  100  109 1   
   110  100  110 1   
   111  100  111 1   
   112  112  113 1   
   113  112  119 1   
   114  113  114 1   
   115  113  116 1   
   116  113  120 1   
   117  114  115 2   
   118  114  126 1   
   119  116  117 1   
   120  116  118 1   
   121  116  121 1   
   122  117  123 1   
   123  117  124 1   
   124  117  125 1   
   125  118  122 1   
   126  126  127 1   
   127  126  133 1   
   128  127  128 1   
   129  127  130 1   
   130  127  134 1   
   131  128  129 2   
   132  128  140 1   
   133  130  131 1   
   134  130  132 1   
   135  130  135 1   
   136  131  137 1   
   137  131  138 1   
   138  131  139 1   
   139  132  136 1   
   140  140  141 1   
   141  140  149 1   
   142  141  142 1   
   143  141  144 1   
   144  141  150 1   
   145  142  143 2   
   146  142  162 1   
   147  144  145 1   
   148  144  151 1   
   149  144  152 1   
   150  145  146 1   
   151  145  153 1   
   152  145  154 1   
   153  146  147 1   
   154  146  155 1   
   155  146  156 1   
   156  147  148 1   
   157  147  157 1   
   158  147  158 1   
   159  148  159 1   
   160  148  160 1   
   161  148  161 1   
   162  162  163 1   
   163  162  171 1   
   164  163  164 1   
   165  163  166 1   
   166  163  172 1   
   167  164  165 2   
   168  164  177 1   
   169  166  167 1   
   170  166  173 1   
   171  166  174 1   
   172  167  168 1   
   173  167  175 1   
   174  167  176 1   
   175  168  169 1   
   176  168  170 1   
   177  177  178 1   
   178  177  182 1   
   179  178  179 1   
   180  178  180 1   
   181  178  181 1   
   182  184  185 1   
   183  184  186 1   
   184  187  188 1   
   185  187  189 1   
@<TRIPOS>SUBSTRUCTURE
     1 MOL         1 TEMP              0 ****  ****    0 ROOT
