@<TRIPOS>MOLECULE
MOL
  189   185     1     0     0
SMALL
resp


@<TRIPOS>ATOM
      1 C1          0.2270    3.4110   -5.3480 c3        1 MOL     -0.439864
      2 C2          0.5210    2.5940   -4.0360 c         1 MOL      0.868619
      3 O1         -0.2570    2.4910   -3.1880 o         1 MOL     -0.572811
      4 H1          1.1200    3.9650   -5.6370 hc        1 MOL      0.098692
      5 H2         -0.0500    2.7260   -6.1480 hc        1 MOL      0.098692
      6 H3         -0.5900    4.1080   -5.1660 hc        1 MOL      0.098692
      7 N1          1.7740    2.1290   -3.8580 n         1 MOL     -0.842567
      8 C3          2.3450    1.8290   -2.5250 c3        1 MOL      0.607306
      9 C4          2.7390    3.1100   -1.7020 c         1 MOL      0.255699
     10 O2          3.6030    3.8510   -2.1220 o         1 MOL     -0.557041
     11 C5          3.5060    0.7810   -2.6550 c3        1 MOL     -0.393617
     12 C6          4.1180    0.3130   -1.3230 c         1 MOL      0.857629
     13 O3          3.5580    0.6200   -0.2630 o         1 MOL     -0.672472
     14 O4          5.1990   -0.2740   -1.3800 o         1 MOL     -0.672472
     15 H4          2.3530    2.2570   -4.6800 hn        1 MOL      0.353785
     16 H5          1.6230    1.3030   -1.8930 h1        1 MOL     -0.137425
     17 H6          4.1940    1.3140   -3.3100 hc        1 MOL      0.065893
     18 H7          3.0130   -0.0710   -3.1330 hc        1 MOL      0.065893
     19 N2          2.1390    3.3080   -0.5840 n         1 MOL     -0.224414
     20 C7          2.1160    4.6620    0.0830 c3        1 MOL      0.081157
     21 C8          3.0950    4.7630    1.3380 c         1 MOL      0.394284
     22 O5          3.5110    5.8850    1.6290 o         1 MOL     -0.572612
     23 C9          0.6880    5.0700    0.3640 c3        1 MOL     -0.106783
     24 C10        -0.2100    5.4040   -0.8650 c3        1 MOL      0.026255
     25 C11         0.3400    6.3460   -1.9220 c3        1 MOL     -0.124785
     26 C12        -0.7230    6.6150   -3.0100 c3        1 MOL      0.059153
     27 N3         -0.1690    7.5100   -4.0360 n4        1 MOL     -0.415004
     28 H8          1.4840    2.6110   -0.2530 hn        1 MOL      0.325511
     29 H9          2.5360    5.3970   -0.6060 h1        1 MOL      0.059763
     30 H10         0.7770    5.8780    1.0950 hc        1 MOL      0.033979
     31 H11         0.2610    4.1830    0.8270 hc        1 MOL      0.033979
     32 H12        -1.1210    5.8990   -0.5210 hc        1 MOL      0.014821
     33 H13        -0.4100    4.4950   -1.4400 hc        1 MOL      0.014821
     34 H14         1.2890    6.0200   -2.3500 hc        1 MOL      0.061420
     35 H15         0.6380    7.2320   -1.3560 hc        1 MOL      0.061420
     36 H16        -1.6260    7.0600   -2.5770 hx        1 MOL      0.090542
     37 H17        -1.1330    5.7000   -3.4400 hx        1 MOL      0.090542
     38 H18         0.4690    6.9690   -4.6020 hn        1 MOL      0.335783
     39 H19        -0.8720    7.9000   -4.6480 hn        1 MOL      0.335783
     40 H20         0.3240    8.3290   -3.7210 hn        1 MOL      0.335783
     41 N4          3.5590    3.6670    1.8710 n         1 MOL     -0.144449
     42 C13         4.6860    3.5140    2.8310 c3        1 MOL      0.042715
     43 C14         5.9440    2.9030    2.1700 c         1 MOL      0.490629
     44 O6          7.0300    3.1670    2.6890 o         1 MOL     -0.518591
     45 C15         4.1790    2.6860    4.0520 c3        1 MOL     -0.306012
     46 C16         3.0370    1.6480    3.8520 c         1 MOL      0.694749
     47 O7          3.0530    1.0630    2.7410 o         1 MOL     -0.661485
     48 O8          2.1540    1.4010    4.6630 o         1 MOL     -0.661485
     49 H21         3.1560    2.7690    1.6190 hn        1 MOL      0.109891
     50 H22         5.0200    4.4710    3.2570 h1        1 MOL      0.087178
     51 H23         3.8080    3.3610    4.8220 hc        1 MOL      0.081006
     52 H24         5.0670    2.2570    4.5210 hc        1 MOL      0.081006
     53 N5          5.7450    2.2700    0.9770 n         1 MOL     -0.415116
     54 C17         6.9790    1.6880    0.3750 c3        1 MOL      0.080920
     55 C18         7.3840    0.4100    1.0400 c         1 MOL      0.476861
     56 O9          8.5020    0.2250    1.3720 o         1 MOL     -0.601360
     57 H25         4.8410    1.8650    0.7970 hn        1 MOL      0.255246
     58 H26         7.8640    2.3330    0.3690 h1        1 MOL      0.045187
     59 H27         6.8050    1.4910   -0.6810 h1        1 MOL      0.045187
     60 N6          6.4980   -0.4740    1.3530 n         1 MOL     -0.002636
     61 C19         6.7870   -1.7410    2.0220 c3        1 MOL     -0.113533
     62 C20         6.9180   -2.9070    0.9990 c         1 MOL      0.449195
     63 O10         7.0190   -4.0170    1.3300 o         1 MOL     -0.519100
     64 C21         5.6480   -2.0690    3.0640 c3        1 MOL     -0.168545
     65 C22         4.1960   -2.0460    2.5860 c         1 MOL      0.816256
     66 O11         3.8840   -2.1210    1.3870 o         1 MOL     -0.753335
     67 O12         3.2610   -1.9640    3.4110 o         1 MOL     -0.753335
     68 H28         5.5410   -0.2830    1.0720 hn        1 MOL     -0.023070
     69 H29         7.7080   -1.6340    2.5960 h1        1 MOL      0.133626
     70 H30         5.7290   -1.2760    3.8110 hc        1 MOL      0.058063
     71 H31         5.9300   -2.9890    3.5650 hc        1 MOL      0.058063
     72 N7          6.7930   -2.5680   -0.2700 n         1 MOL     -0.238506
     73 C23         6.7260   -3.4550   -1.4380 c3        1 MOL     -0.214565
     74 C24         5.3900   -4.1270   -1.7690 c         1 MOL      0.532009
     75 O13         5.3340   -5.0780   -2.5880 o         1 MOL     -0.556246
     76 H32         6.5600   -1.5890   -0.3600 hn        1 MOL      0.197555
     77 H33         7.5120   -4.2050   -1.4460 h1        1 MOL      0.122402
     78 H34         6.8640   -2.7860   -2.2880 h1        1 MOL      0.122402
     79 N8          4.2540   -3.6880   -1.0870 n         1 MOL     -0.224601
     80 C25         2.9150   -4.1790   -1.4010 c3        1 MOL     -0.061923
     81 C26         1.7750   -3.1220   -1.5270 c         1 MOL      0.720223
     82 O14         1.9260   -1.9590   -1.1140 o         1 MOL     -0.674800
     83 C27         2.4580   -5.2740   -0.4570 c3        1 MOL      0.375237
     84 C28         3.0700   -6.6270   -0.6640 c3        1 MOL     -0.427336
     85 O15         2.8620   -4.8820    0.8470 oh        1 MOL     -0.628702
     86 H35         4.3530   -2.9150   -0.4340 hn        1 MOL      0.166262
     87 H36         2.9140   -4.5010   -2.4500 h1        1 MOL      0.050423
     88 H37         1.3780   -5.3350   -0.5610 h1        1 MOL      0.035662
     89 H38         3.8210   -4.8450    0.8290 ho        1 MOL      0.419926
     90 H39         3.9860   -6.7520   -0.0800 hc        1 MOL      0.107452
     91 H40         2.3890   -7.4240   -0.3650 hc        1 MOL      0.107452
     92 H41         3.3210   -6.7070   -1.7160 hc        1 MOL      0.107452
     93 N9          0.6260   -3.5830   -2.0000 n         1 MOL     -0.671683
     94 C29        -0.6240   -2.7620   -2.0170 c3        1 MOL      0.242822
     95 C30        -1.6820   -3.3930   -1.0680 c         1 MOL      0.432004
     96 O16        -2.0760   -4.5480   -1.2590 o         1 MOL     -0.554874
     97 C31        -1.0910   -2.5700   -3.5120 c3        1 MOL     -0.067328
     98 C32        -0.3080   -1.3360   -4.0760 c3        1 MOL      0.065812
     99 C33        -2.5590   -2.2240   -3.6210 c3        1 MOL      0.020481
    100 C34        -0.4470   -1.1890   -5.6030 c3        1 MOL     -0.438346
    101 H42         0.4300   -4.5620   -2.1590 hn        1 MOL      0.306407
    102 H43        -0.3590   -1.7910   -1.5880 h1        1 MOL      0.060163
    103 H44        -0.9870   -3.5060   -4.0500 hc        1 MOL      0.057118
    104 H45         0.7560   -1.4670   -3.8620 hc        1 MOL      0.054361
    105 H46        -0.5620   -0.4670   -3.4780 hc        1 MOL      0.054361
    106 H47        -2.7650   -1.6380   -4.5140 hc        1 MOL     -0.020990
    107 H48        -3.2350   -3.0530   -3.8390 hc        1 MOL     -0.020990
    108 H49        -2.9230   -1.6730   -2.7570 hc        1 MOL     -0.020990
    109 H50        -1.4140   -0.7960   -5.9110 hc        1 MOL      0.113210
    110 H51         0.1540   -0.3390   -5.9280 hc        1 MOL      0.113210
    111 H52        -0.2320   -2.1410   -6.0660 hc        1 MOL      0.113210
    112 N10        -2.4190   -2.5290   -0.3130 n         1 MOL     -0.077665
    113 C35        -3.5600   -2.8790    0.5430 c3        1 MOL      0.052220
    114 C36        -4.8850   -2.6380   -0.2600 c         1 MOL      0.354912
    115 O17        -5.0760   -2.0620   -1.3350 o         1 MOL     -0.341862
    116 C37        -3.5710   -2.0220    1.8410 c3        1 MOL      0.074118
    117 C38        -2.2720   -2.0470    2.6910 c3        1 MOL     -0.368326
    118 O18        -3.8630   -0.7080    1.4560 oh        1 MOL     -0.367996
    119 H53        -2.0810   -1.5830   -0.2470 hn        1 MOL      0.061918
    120 H54        -3.6060   -3.9430    0.7590 h1        1 MOL      0.074888
    121 H55        -4.4070   -2.3980    2.4310 h1        1 MOL      0.033636
    122 H56        -3.4700   -0.1770    2.1550 ho        1 MOL      0.384909
    123 H57        -1.8030   -3.0300    2.6180 hc        1 MOL      0.108909
    124 H58        -1.6020   -1.3910    2.1450 hc        1 MOL      0.108909
    125 H59        -2.4450   -1.7280    3.7190 hc        1 MOL      0.108909
    126 N11        -6.0680   -3.0120    0.3250 n         1 MOL     -0.346022
    127 C39        -7.4110   -2.5800   -0.0290 c3        1 MOL     -0.022111
    128 C40        -7.6040   -1.0640   -0.1150 c         1 MOL      0.344272
    129 O19        -8.3690   -0.5340   -0.9430 o         1 MOL     -0.466307
    130 C41        -8.3770   -3.1120    1.0550 c3        1 MOL      0.200623
    131 C42        -8.6550   -4.5770    0.8090 c3        1 MOL     -0.398528
    132 O20        -7.7060   -2.9850    2.3260 oh        1 MOL     -0.656407
    133 H60        -6.1150   -3.5730    1.1730 hn        1 MOL      0.264840
    134 H61        -7.7630   -2.9200   -1.0080 h1        1 MOL      0.114821
    135 H62        -9.2460   -2.4580    0.9700 h1        1 MOL      0.079495
    136 H63        -8.2300   -3.2670    3.0770 ho        1 MOL      0.431610
    137 H64        -7.7780   -5.2120    0.7690 hc        1 MOL      0.122980
    138 H65        -9.2970   -4.8290    1.6580 hc        1 MOL      0.122980
    139 H66        -9.1840   -4.7430   -0.1310 hc        1 MOL      0.122980
    140 N12        -7.0110   -0.2690    0.8240 n         1 MOL     -0.243443
    141 C43        -7.0930    1.1880    0.8530 c3        1 MOL     -0.028589
    142 C44        -6.2700    1.7220   -0.2500 c         1 MOL      0.353965
    143 O21        -6.6770    2.5330   -1.1240 o         1 MOL     -0.502968
    144 C45        -6.5290    1.7190    2.1770 c3        1 MOL      0.100358
    145 C46        -7.4100    1.4790    3.4050 c3        1 MOL     -0.199182
    146 C47        -7.0660    2.4030    4.5790 c3        1 MOL      0.309668
    147 C48        -7.8530    1.9890    5.9040 c3        1 MOL     -0.037083
    148 N13        -7.3870    2.6740    7.0750 n4        1 MOL     -0.391296
    149 H67        -6.1940   -0.6360    1.2790 hn        1 MOL      0.196122
    150 H68        -8.1320    1.4920    0.6510 h1        1 MOL      0.115056
    151 H69        -6.4130    2.8020    2.0550 hc        1 MOL     -0.001717
    152 H70        -5.4960    1.3940    2.3100 hc        1 MOL     -0.001717
    153 H71        -7.3470    0.4090    3.6100 hc        1 MOL      0.030548
    154 H72        -8.4720    1.7040    3.2910 hc        1 MOL      0.030548
    155 H73        -7.2180    3.4630    4.3690 hc        1 MOL     -0.045809
    156 H74        -6.0160    2.2380    4.8200 hc        1 MOL     -0.045809
    157 H75        -7.5780    0.9660    6.1770 hx        1 MOL      0.088958
    158 H76        -8.9100    2.0980    5.6690 hx        1 MOL      0.088958
    159 H77        -7.9260    2.4670    7.9030 hn        1 MOL      0.326069
    160 H78        -6.4390    2.4070    7.3200 hn        1 MOL      0.326069
    161 H79        -7.5260    3.6660    6.9540 hn        1 MOL      0.326069
    162 N14        -5.0190    1.2200   -0.3930 n         1 MOL     -0.158152
    163 C49        -4.1520    1.6270   -1.5230 c3        1 MOL     -0.038319
    164 C50        -4.6510    1.3110   -2.9170 c         1 MOL      0.426206
    165 O22        -4.4190    2.1140   -3.8220 o         1 MOL     -0.564690
    166 C51        -2.7490    0.9570   -1.3270 c3        1 MOL      0.208667
    167 C52        -1.8830    1.7890   -0.3440 c3        1 MOL     -0.000632
    168 C53        -0.7170    0.9420    0.1790 c         1 MOL      0.721477
    169 O23        -0.7020   -0.3230    0.2410 o         1 MOL     -0.715146
    170 O24         0.2990    1.5340    0.5710 o         1 MOL     -0.715146
    171 H80        -4.6620    0.5530    0.2710 hn        1 MOL      0.050889
    172 H81        -4.0240    2.6940   -1.3650 h1        1 MOL      0.056793
    173 H82        -2.1380    0.9190   -2.2360 hc        1 MOL     -0.047840
    174 H83        -2.9670   -0.0330   -0.9280 hc        1 MOL     -0.047840
    175 H84        -2.4680    1.9940    0.5550 hc        1 MOL     -0.052032
    176 H85        -1.5060    2.6650   -0.8560 hc        1 MOL     -0.052032
    177 N15        -5.2960    0.1400   -3.1000 n         1 MOL     -0.021478
    178 C54        -5.9820   -0.3200   -4.3290 c3        1 MOL     -0.322929
    179 H86        -6.9800   -0.6790   -4.0750 h1        1 MOL      0.113544
    180 H87        -6.0630    0.5080   -5.0330 h1        1 MOL      0.113544
    181 H88        -5.4110   -1.1300   -4.7830 h1        1 MOL      0.113544
    182 H89        -5.4550   -0.5070   -2.3410 hn        1 MOL      0.150408
    183 Ca1         1.8380   -0.7070    1.2480 Ca        1 MOL      1.735532
    184 O25         0.6750   -0.3760    3.6110 oh        1 MOL     -0.849894
    185 H90         1.4330   -0.0870    4.1210 ho        1 MOL      0.398612
    186 H91         0.0630   -0.7140    4.2680 ho        1 MOL      0.398612
    187 O26         0.9090   -3.1400    1.7390 oh        1 MOL     -0.849894
    188 H92         1.4370   -3.9180    1.5330 ho        1 MOL      0.398612
    189 H93         0.9910   -3.0370    2.6820 ho        1 MOL      0.398612
@<TRIPOS>BOND
     1    1    2 1   
     2    1    4 1   
     3    1    5 1   
     4    1    6 1   
     5    2    3 2   
     6    2    7 1   
     7    7    8 1   
     8    7   15 1   
     9    8    9 1   
    10    8   11 1   
    11    8   16 1   
    12    9   10 2   
    13    9   19 1   
    14   11   12 1   
    15   11   17 1   
    16   11   18 1   
    17   12   13 1   
    18   12   14 1   
    19   19   20 1   
    20   19   28 1   
    21   20   21 1   
    22   20   23 1   
    23   20   29 1   
    24   21   22 2   
    25   21   41 1   
    26   23   24 1   
    27   23   30 1   
    28   23   31 1   
    29   24   25 1   
    30   24   32 1   
    31   24   33 1   
    32   25   26 1   
    33   25   34 1   
    34   25   35 1   
    35   26   27 1   
    36   26   36 1   
    37   26   37 1   
    38   27   38 1   
    39   27   39 1   
    40   27   40 1   
    41   41   42 1   
    42   41   49 1   
    43   42   43 1   
    44   42   45 1   
    45   42   50 1   
    46   43   44 2   
    47   43   53 1   
    48   45   46 1   
    49   45   51 1   
    50   45   52 1   
    51   46   47 1   
    52   46   48 1   
    53   53   54 1   
    54   53   57 1   
    55   54   55 1   
    56   54   58 1   
    57   54   59 1   
    58   55   56 2   
    59   55   60 1   
    60   60   61 1   
    61   60   68 1   
    62   61   62 1   
    63   61   64 1   
    64   61   69 1   
    65   62   63 2   
    66   62   72 1   
    67   64   65 1   
    68   64   70 1   
    69   64   71 1   
    70   65   66 1   
    71   65   67 1   
    72   72   73 1   
    73   72   76 1   
    74   73   74 1   
    75   73   77 1   
    76   73   78 1   
    77   74   75 2   
    78   74   79 1   
    79   79   80 1   
    80   79   86 1   
    81   80   81 1   
    82   80   83 1   
    83   80   87 1   
    84   81   82 2   
    85   81   93 1   
    86   83   84 1   
    87   83   85 1   
    88   83   88 1   
    89   84   90 1   
    90   84   91 1   
    91   84   92 1   
    92   85   89 1   
    93   93   94 1   
    94   93  101 1   
    95   94   95 1   
    96   94   97 1   
    97   94  102 1   
    98   95   96 2   
    99   95  112 1   
   100   97   98 1   
   101   97   99 1   
   102   97  103 1   
   103   98  100 1   
   104   98  104 1   
   105   98  105 1   
   106   99  106 1   
   107   99  107 1   
   108   99  108 1   
   109  100  109 1   
   110  100  110 1   
   111  100  111 1   
   112  112  113 1   
   113  112  119 1   
   114  113  114 1   
   115  113  116 1   
   116  113  120 1   
   117  114  115 2   
   118  114  126 1   
   119  116  117 1   
   120  116  118 1   
   121  116  121 1   
   122  117  123 1   
   123  117  124 1   
   124  117  125 1   
   125  118  122 1   
   126  126  127 1   
   127  126  133 1   
   128  127  128 1   
   129  127  130 1   
   130  127  134 1   
   131  128  129 2   
   132  128  140 1   
   133  130  131 1   
   134  130  132 1   
   135  130  135 1   
   136  131  137 1   
   137  131  138 1   
   138  131  139 1   
   139  132  136 1   
   140  140  141 1   
   141  140  149 1   
   142  141  142 1   
   143  141  144 1   
   144  141  150 1   
   145  142  143 2   
   146  142  162 1   
   147  144  145 1   
   148  144  151 1   
   149  144  152 1   
   150  145  146 1   
   151  145  153 1   
   152  145  154 1   
   153  146  147 1   
   154  146  155 1   
   155  146  156 1   
   156  147  148 1   
   157  147  157 1   
   158  147  158 1   
   159  148  159 1   
   160  148  160 1   
   161  148  161 1   
   162  162  163 1   
   163  162  171 1   
   164  163  164 1   
   165  163  166 1   
   166  163  172 1   
   167  164  165 2   
   168  164  177 1   
   169  166  167 1   
   170  166  173 1   
   171  166  174 1   
   172  167  168 1   
   173  167  175 1   
   174  167  176 1   
   175  168  169 1   
   176  168  170 1   
   177  177  178 1   
   178  177  182 1   
   179  178  179 1   
   180  178  180 1   
   181  178  181 1   
   182  184  185 1   
   183  184  186 1   
   184  187  188 1   
   185  187  189 1   
@<TRIPOS>SUBSTRUCTURE
     1 MOL         1 TEMP              0 ****  ****    0 ROOT
