@<TRIPOS>MOLECULE
MOL
  189   185     1     0     0
SMALL
resp


@<TRIPOS>ATOM
      1 C1          0.1220    1.1170    6.1470 c3        1 MOL     -0.367299
      2 C2         -0.4210    1.3000    4.7120 c         1 MOL      0.816270
      3 O1          0.1770    2.1130    4.0260 o         1 MOL     -0.602730
      4 H1         -0.6500    1.3940    6.8660 hc        1 MOL      0.092828
      5 H2          0.4030    0.0750    6.3010 hc        1 MOL      0.092828
      6 H3          0.9960    1.7530    6.2900 hc        1 MOL      0.092828
      7 N1         -1.6030    0.7050    4.3130 n         1 MOL     -0.670486
      8 C3         -2.2620    1.0050    3.0230 c3        1 MOL      0.125501
      9 C4         -2.6150    2.5040    2.8600 c         1 MOL      0.474330
     10 O2         -3.1750    3.1400    3.7530 o         1 MOL     -0.570809
     11 C5         -3.3900   -0.0300    2.9930 c3        1 MOL     -0.161438
     12 C6         -3.9830   -0.1810    1.6120 c         1 MOL      0.748160
     13 O3         -5.0650   -0.7590    1.5670 o         1 MOL     -0.689254
     14 O4         -3.5190    0.3570    0.5910 o         1 MOL     -0.689254
     15 H4         -2.1350    0.1010    4.9310 hn        1 MOL      0.332010
     16 H5         -1.5020    0.7240    2.2920 h1        1 MOL      0.035924
     17 H6         -4.1640    0.1540    3.7380 hc        1 MOL      0.057509
     18 H7         -2.9960   -0.9900    3.3270 hc        1 MOL      0.057509
     19 N2         -2.2310    3.0830    1.7340 n         1 MOL      0.044354
     20 C7         -2.2150    4.5560    1.5620 c3        1 MOL     -0.159036
     21 C8         -3.2490    4.9940    0.4970 c         1 MOL      0.437911
     22 O5         -3.8800    6.0660    0.5710 o         1 MOL     -0.563502
     23 C9         -0.6850    4.8360    1.2750 c3        1 MOL     -0.137868
     24 C10        -0.4140    6.3260    0.9740 c3        1 MOL      0.042230
     25 C11         1.0470    6.5420    0.6460 c3        1 MOL     -0.128725
     26 C12         1.1770    8.0050    0.1070 c3        1 MOL     -0.196528
     27 N3          0.4870    8.1370   -1.2290 n4        1 MOL     -0.281495
     28 H8         -1.7550    2.4900    1.0690 hn        1 MOL     -0.068637
     29 H9         -2.3940    5.0600    2.5090 h1        1 MOL      0.131416
     30 H10        -0.2790    4.2330    0.4670 hc        1 MOL      0.127040
     31 H11        -0.2330    4.5220    2.2100 hc        1 MOL      0.127040
     32 H12        -0.7290    6.9840    1.7850 hc        1 MOL      0.019825
     33 H13        -0.9080    6.5890    0.0270 hc        1 MOL      0.019825
     34 H14         1.4500    5.8220   -0.0680 hc        1 MOL      0.100434
     35 H15         1.6410    6.4720    1.5520 hc        1 MOL      0.100434
     36 H16         2.2070    8.3780    0.1100 hx        1 MOL      0.158005
     37 H17         0.5330    8.6460    0.7140 hx        1 MOL      0.158005
     38 H18         0.5300    9.0460   -1.6530 hn        1 MOL      0.307571
     39 H19         0.9220    7.5480   -1.9210 hn        1 MOL      0.307571
     40 H20        -0.5170    8.0010   -1.2440 hn        1 MOL      0.307571
     41 N4         -3.4650    4.1420   -0.5250 n         1 MOL     -0.247846
     42 C13        -4.4080    4.3550   -1.6610 c3        1 MOL      0.164442
     43 C14        -5.6050    3.4480   -1.5040 c         1 MOL      0.360090
     44 O6         -6.6930    3.6460   -2.0840 o         1 MOL     -0.540728
     45 C15        -3.7810    4.0720   -3.0490 c3        1 MOL     -0.511016
     46 C16        -2.9750    2.7560   -3.1510 c         1 MOL      0.849071
     47 O7         -3.0360    1.8250   -2.3030 o         1 MOL     -0.705880
     48 O8         -2.1160    2.6440   -4.0480 o         1 MOL     -0.705880
     49 H21        -3.0260    3.2350   -0.4950 hn        1 MOL      0.173206
     50 H22        -4.6900    5.4070   -1.6340 h1        1 MOL      0.076838
     51 H23        -3.0750    4.8760   -3.2780 hc        1 MOL      0.128004
     52 H24        -4.5660    4.0160   -3.8060 hc        1 MOL      0.128004
     53 N5         -5.5200    2.4720   -0.5940 n         1 MOL     -0.043408
     54 C17        -6.7420    1.8810   -0.0540 c3        1 MOL     -0.194808
     55 C18        -7.2000    0.5870   -0.7250 c         1 MOL      0.547380
     56 O9         -8.3400    0.1310   -0.6460 o         1 MOL     -0.599911
     57 H25        -4.6340    2.2140   -0.1870 hn        1 MOL      0.043807
     58 H26        -7.5710    2.6010   -0.0380 h1        1 MOL      0.106306
     59 H27        -6.6520    1.6860    1.0170 h1        1 MOL      0.106306
     60 N6         -6.2950   -0.0080   -1.4580 n         1 MOL     -0.221271
     61 C19        -6.6200   -1.2360   -2.2420 c3        1 MOL     -0.078875
     62 C20        -6.7130   -2.5230   -1.3770 c         1 MOL      0.442005
     63 O10        -6.9340   -3.6090   -1.9070 o         1 MOL     -0.531769
     64 C21        -5.6300   -1.4490   -3.4270 c3        1 MOL     -0.204925
     65 C22        -4.1720   -1.5060   -3.0280 c         1 MOL      0.737677
     66 O11        -3.7620   -2.1080   -2.0340 o         1 MOL     -0.713973
     67 O12        -3.4180   -0.6960   -3.5940 o         1 MOL     -0.713973
     68 H28        -5.4680    0.5410   -1.6580 hn        1 MOL      0.208324
     69 H29        -7.6040   -1.0290   -2.6650 h1        1 MOL      0.124213
     70 H30        -5.7060   -0.5900   -4.0960 hc        1 MOL      0.068940
     71 H31        -5.9720   -2.3280   -3.9790 hc        1 MOL      0.068940
     72 N7         -6.4850   -2.4320   -0.0610 n         1 MOL     -0.144724
     73 C23        -6.6090   -3.5670    0.8320 c3        1 MOL     -0.288260
     74 C24        -5.4470   -4.5060    0.7340 c         1 MOL      0.500563
     75 O13        -5.5600   -5.7200    0.9550 o         1 MOL     -0.555426
     76 H32        -5.9880   -1.6210    0.2710 hn        1 MOL      0.236767
     77 H33        -7.3960   -4.2250    0.4600 h1        1 MOL      0.136484
     78 H34        -6.8200   -3.3210    1.8700 h1        1 MOL      0.136484
     79 N8         -4.2790   -4.0030    0.2870 n         1 MOL     -0.044590
     80 C25        -2.9050   -4.5940    0.2710 c3        1 MOL     -0.404982
     81 C26        -1.7900   -3.5500    0.5270 c         1 MOL      0.837937
     82 O14        -1.8390   -2.3330    0.3020 o         1 MOL     -0.688508
     83 C27        -2.6260   -5.3520   -1.0060 c3        1 MOL      0.430503
     84 C28        -3.5570   -6.5570   -1.2330 c3        1 MOL     -0.391998
     85 O15        -2.6470   -4.5560   -2.1420 oh        1 MOL     -0.617342
     86 H35        -4.3000   -3.0420   -0.0150 hn        1 MOL      0.027598
     87 H36        -2.8630   -5.2460    1.1400 h1        1 MOL      0.146164
     88 H37        -1.6100   -5.7510   -0.8680 h1        1 MOL     -0.016656
     89 H38        -3.2610   -3.8490   -1.9420 ho        1 MOL      0.424628
     90 H39        -3.6970   -7.0950   -0.2980 hc        1 MOL      0.107318
     91 H40        -4.5470   -6.1670   -1.4500 hc        1 MOL      0.107318
     92 H41        -3.2920   -7.2340   -2.0380 hc        1 MOL      0.107318
     93 N9         -0.7060   -4.0420    1.1050 n         1 MOL     -0.723589
     94 C29         0.5240   -3.2030    1.4990 c3        1 MOL      0.068247
     95 C30         1.7680   -3.5190    0.4790 c         1 MOL      0.582635
     96 O16         2.1700   -4.6480    0.3370 o         1 MOL     -0.572164
     97 C31         0.8490   -3.5080    2.9280 c3        1 MOL      0.138446
     98 C32        -0.3660   -3.5080    3.9800 c3        1 MOL      0.253640
     99 C33         1.8610   -2.4060    3.3680 c3        1 MOL     -0.247212
    100 C34        -0.0680   -3.9340    5.4260 c3        1 MOL     -0.368091
    101 H42        -0.5710   -5.0350    1.1480 hn        1 MOL      0.331683
    102 H43         0.2930   -2.1400    1.5090 h1        1 MOL      0.202209
    103 H44         1.3930   -4.4550    2.9940 hc        1 MOL     -0.031884
    104 H45        -1.1150   -4.1970    3.5910 hc        1 MOL     -0.048936
    105 H46        -0.8420   -2.5280    3.9650 hc        1 MOL     -0.048936
    106 H47         1.2860   -1.4850    3.3450 hc        1 MOL      0.026529
    107 H48         2.2140   -2.4460    4.3950 hc        1 MOL      0.026529
    108 H49         2.7600   -2.3520    2.7450 hc        1 MOL      0.026529
    109 H50        -0.9010   -3.6380    6.0690 hc        1 MOL      0.085622
    110 H51        -0.0960   -5.0200    5.3520 hc        1 MOL      0.085622
    111 H52         0.8900   -3.5880    5.8160 hc        1 MOL      0.085622
    112 N10         2.2490   -2.5140   -0.1850 n         1 MOL     -0.206161
    113 C35         3.5110   -2.5940   -0.9300 c3        1 MOL      0.049203
    114 C36         4.7770   -2.3210   -0.0840 c         1 MOL      0.318850
    115 O17         4.8140   -1.8290    1.0480 o         1 MOL     -0.269925
    116 C37         3.6200   -1.6030   -2.1460 c3        1 MOL     -0.038469
    117 C38         2.4890   -1.7600   -3.1540 c3        1 MOL     -0.150805
    118 O18         3.4490   -0.4130   -1.4680 oh        1 MOL     -0.109890
    119 H53         1.8010   -1.6240   -0.0620 hn        1 MOL      0.034342
    120 H54         3.6070   -3.6060   -1.3130 h1        1 MOL      0.079372
    121 H55         4.6150   -1.5820   -2.5830 h1        1 MOL      0.030775
    122 H56         3.1490    0.2730   -2.0530 ho        1 MOL      0.324533
    123 H57         2.3960   -2.6920   -3.7070 hc        1 MOL      0.051782
    124 H58         1.4870   -1.5610   -2.7640 hc        1 MOL      0.051782
    125 H59         2.6940   -0.9980   -3.8970 hc        1 MOL      0.051782
    126 N11         5.9640   -2.7380   -0.5760 n         1 MOL     -0.390523
    127 C39         7.2650   -2.2480   -0.0080 c3        1 MOL      0.016069
    128 C40         7.2190   -0.7310    0.1660 c         1 MOL      0.055792
    129 O19         7.5620   -0.2800    1.2690 o         1 MOL     -0.449488
    130 C41         8.4770   -2.4890   -0.9650 c3        1 MOL      0.233829
    131 C42         8.9010   -4.0030   -0.9290 c3        1 MOL     -0.473000
    132 O20         8.2220   -2.0950   -2.2690 oh        1 MOL     -0.630898
    133 H60         5.9330   -3.2900   -1.4240 hn        1 MOL      0.266909
    134 H61         7.4960   -2.6420    0.9790 h1        1 MOL      0.135038
    135 H62         9.3310   -1.8850   -0.6450 h1        1 MOL      0.067761
    136 H63         8.5790   -2.8020   -2.8120 ho        1 MOL      0.400126
    137 H64         9.3370   -4.2540    0.0420 hc        1 MOL      0.142817
    138 H65         8.1110   -4.7330   -1.1030 hc        1 MOL      0.142817
    139 H66         9.7020   -4.0700   -1.6680 hc        1 MOL      0.142817
    140 N12         6.6900    0.0240   -0.7480 n         1 MOL      0.264302
    141 C43         6.4980    1.5140   -0.7540 c3        1 MOL     -0.006761
    142 C44         5.6450    1.9070    0.4640 c         1 MOL      0.157651
    143 O21         6.0010    2.9060    1.1270 o         1 MOL     -0.490617
    144 C45         5.8370    1.9970   -2.0430 c3        1 MOL     -0.288074
    145 C46         6.5500    1.5350   -3.2820 c3        1 MOL      0.167597
    146 C47         8.0410    1.6610   -3.2550 c3        1 MOL      0.039309
    147 C48         8.4740    1.2160   -4.6760 c3        1 MOL     -0.088052
    148 N13         9.8470    0.6030   -4.6710 n4        1 MOL     -0.314848
    149 H67         6.5110   -0.4370   -1.6240 hn        1 MOL      0.079090
    150 H68         7.4640    2.0030   -0.6490 h1        1 MOL      0.052742
    151 H69         5.8380    3.0850   -2.1400 hc        1 MOL      0.114660
    152 H70         4.8350    1.5760   -2.1660 hc        1 MOL      0.114660
    153 H71         6.0710    2.1460   -4.0530 hc        1 MOL     -0.047514
    154 H72         6.2760    0.5080   -3.5090 hc        1 MOL     -0.047514
    155 H73         8.4280    1.0140   -2.4650 hc        1 MOL      0.025117
    156 H74         8.3050    2.7110   -3.0900 hc        1 MOL      0.025117
    157 H75         8.5170    2.0910   -5.3230 hx        1 MOL      0.122660
    158 H76         7.7540    0.6050   -5.2270 hx        1 MOL      0.122660
    159 H77         9.8060   -0.3670   -4.3960 hn        1 MOL      0.297579
    160 H78        10.3280    0.7610   -5.5510 hn        1 MOL      0.297579
    161 H79        10.4560    1.0220   -3.9920 hn        1 MOL      0.297579
    162 N14         4.6510    1.1400    0.7750 n         1 MOL      0.368129
    163 C49         3.8100    1.5000    1.9170 c3        1 MOL     -0.237370
    164 C50         4.4000    1.1030    3.3050 c         1 MOL      0.461572
    165 O22         4.2540    1.8890    4.2290 o         1 MOL     -0.532761
    166 C51         2.4130    0.9160    1.6790 c3        1 MOL      0.463240
    167 C52         1.6530    1.7630    0.6910 c3        1 MOL     -0.180754
    168 C53         0.4200    0.9980    0.2150 c         1 MOL      0.659021
    169 O23         0.4400   -0.1860   -0.0470 o         1 MOL     -0.678530
    170 O24        -0.6060    1.6050   -0.1550 o         1 MOL     -0.678530
    171 H80         4.2770    0.4730    0.1240 hn        1 MOL     -0.286739
    172 H81         3.5550    2.5560    1.9620 h1        1 MOL      0.082011
    173 H82         1.9450    0.9190    2.6690 hc        1 MOL     -0.086709
    174 H83         2.3890   -0.1380    1.4060 hc        1 MOL     -0.086709
    175 H84         2.2680    1.9420   -0.1900 hc        1 MOL     -0.025578
    176 H85         1.4820    2.7370    1.1450 hc        1 MOL     -0.025578
    177 N15         5.1100   -0.0190    3.4730 n         1 MOL     -0.108573
    178 C54         5.9200   -0.3440    4.6000 c3        1 MOL     -0.232723
    179 H86         6.9680   -0.1650    4.3570 h1        1 MOL      0.094610
    180 H87         5.6330    0.2790    5.4470 h1        1 MOL      0.094610
    181 H88         5.7810   -1.3940    4.8570 h1        1 MOL      0.094610
    182 H89         5.0640   -0.5850    2.6380 hn        1 MOL      0.132429
    183 Ca1        -2.0000   -0.2590   -1.3310 Ca        1 MOL      1.769718
    184 O25        -0.5620    0.4310   -3.7050 oh        1 MOL     -0.840451
    185 H90        -0.7330   -0.3030   -4.2870 ho        1 MOL      0.395772
    186 H91        -0.9400    1.1960   -4.1550 ho        1 MOL      0.395772
    187 O26        -0.9020   -2.4710   -2.5650 oh        1 MOL     -0.840451
    188 H92        -1.3100   -3.2780   -2.2250 ho        1 MOL      0.395772
    189 H93        -0.2940   -2.7790   -3.2310 ho        1 MOL      0.395772
@<TRIPOS>BOND
     1    1    2 1   
     2    1    4 1   
     3    1    5 1   
     4    1    6 1   
     5    2    3 2   
     6    2    7 1   
     7    7    8 1   
     8    7   15 1   
     9    8    9 1   
    10    8   11 1   
    11    8   16 1   
    12    9   10 2   
    13    9   19 1   
    14   11   12 1   
    15   11   17 1   
    16   11   18 1   
    17   12   13 1   
    18   12   14 1   
    19   19   20 1   
    20   19   28 1   
    21   20   21 1   
    22   20   23 1   
    23   20   29 1   
    24   21   22 2   
    25   21   41 1   
    26   23   24 1   
    27   23   30 1   
    28   23   31 1   
    29   24   25 1   
    30   24   32 1   
    31   24   33 1   
    32   25   26 1   
    33   25   34 1   
    34   25   35 1   
    35   26   27 1   
    36   26   36 1   
    37   26   37 1   
    38   27   38 1   
    39   27   39 1   
    40   27   40 1   
    41   41   42 1   
    42   41   49 1   
    43   42   43 1   
    44   42   45 1   
    45   42   50 1   
    46   43   44 2   
    47   43   53 1   
    48   45   46 1   
    49   45   51 1   
    50   45   52 1   
    51   46   47 1   
    52   46   48 1   
    53   53   54 1   
    54   53   57 1   
    55   54   55 1   
    56   54   58 1   
    57   54   59 1   
    58   55   56 2   
    59   55   60 1   
    60   60   61 1   
    61   60   68 1   
    62   61   62 1   
    63   61   64 1   
    64   61   69 1   
    65   62   63 2   
    66   62   72 1   
    67   64   65 1   
    68   64   70 1   
    69   64   71 1   
    70   65   66 1   
    71   65   67 1   
    72   72   73 1   
    73   72   76 1   
    74   73   74 1   
    75   73   77 1   
    76   73   78 1   
    77   74   75 2   
    78   74   79 1   
    79   79   80 1   
    80   79   86 1   
    81   80   81 1   
    82   80   83 1   
    83   80   87 1   
    84   81   82 2   
    85   81   93 1   
    86   83   84 1   
    87   83   85 1   
    88   83   88 1   
    89   84   90 1   
    90   84   91 1   
    91   84   92 1   
    92   85   89 1   
    93   93   94 1   
    94   93  101 1   
    95   94   95 1   
    96   94   97 1   
    97   94  102 1   
    98   95   96 2   
    99   95  112 1   
   100   97   98 1   
   101   97   99 1   
   102   97  103 1   
   103   98  100 1   
   104   98  104 1   
   105   98  105 1   
   106   99  106 1   
   107   99  107 1   
   108   99  108 1   
   109  100  109 1   
   110  100  110 1   
   111  100  111 1   
   112  112  113 1   
   113  112  119 1   
   114  113  114 1   
   115  113  116 1   
   116  113  120 1   
   117  114  115 2   
   118  114  126 1   
   119  116  117 1   
   120  116  118 1   
   121  116  121 1   
   122  117  123 1   
   123  117  124 1   
   124  117  125 1   
   125  118  122 1   
   126  126  127 1   
   127  126  133 1   
   128  127  128 1   
   129  127  130 1   
   130  127  134 1   
   131  128  129 2   
   132  128  140 1   
   133  130  131 1   
   134  130  132 1   
   135  130  135 1   
   136  131  137 1   
   137  131  138 1   
   138  131  139 1   
   139  132  136 1   
   140  140  141 1   
   141  140  149 1   
   142  141  142 1   
   143  141  144 1   
   144  141  150 1   
   145  142  143 2   
   146  142  162 1   
   147  144  145 1   
   148  144  151 1   
   149  144  152 1   
   150  145  146 1   
   151  145  153 1   
   152  145  154 1   
   153  146  147 1   
   154  146  155 1   
   155  146  156 1   
   156  147  148 1   
   157  147  157 1   
   158  147  158 1   
   159  148  159 1   
   160  148  160 1   
   161  148  161 1   
   162  162  163 1   
   163  162  171 1   
   164  163  164 1   
   165  163  166 1   
   166  163  172 1   
   167  164  165 2   
   168  164  177 1   
   169  166  167 1   
   170  166  173 1   
   171  166  174 1   
   172  167  168 1   
   173  167  175 1   
   174  167  176 1   
   175  168  169 1   
   176  168  170 1   
   177  177  178 1   
   178  177  182 1   
   179  178  179 1   
   180  178  180 1   
   181  178  181 1   
   182  184  185 1   
   183  184  186 1   
   184  187  188 1   
   185  187  189 1   
@<TRIPOS>SUBSTRUCTURE
     1 MOL         1 TEMP              0 ****  ****    0 ROOT
