@<TRIPOS>MOLECULE
MOL
  175   173     1     0     0
SMALL
resp


@<TRIPOS>ATOM
      1 C1         -0.3090    2.8850    6.0340 c3        1 MOL     -0.408276
      2 C2         -0.6200    2.6870    4.5370 c         1 MOL      0.680026
      3 O1         -0.0120    3.3190    3.6570 o         1 MOL     -0.560810
      4 H1         -0.9240    3.6940    6.4290 hc        1 MOL      0.100084
      5 H2         -0.5270    1.9650    6.5760 hc        1 MOL      0.100084
      6 H3          0.7450    3.1380    6.1570 hc        1 MOL      0.100084
      7 N1         -1.6540    1.8580    4.2530 n         1 MOL     -0.529383
      8 C3         -2.1430    1.8460    2.8970 c3        1 MOL     -0.023359
      9 C4         -2.5890    3.2120    2.2820 c         1 MOL      0.702858
     10 O2         -3.5460    3.8370    2.7780 o         1 MOL     -0.633183
     11 C5         -3.3360    0.8600    2.8630 c3        1 MOL     -0.199743
     12 C6         -3.9730    0.7070    1.5030 c         1 MOL      0.884415
     13 O3         -3.4280    1.0950    0.4810 o         1 MOL     -0.761026
     14 O4         -5.0760    0.1610    1.4170 o         1 MOL     -0.761026
     15 H4         -2.0760    1.2910    4.9740 hn        1 MOL      0.317619
     16 H5         -1.2640    1.4740    2.3850 h1        1 MOL      0.032676
     17 H6         -4.0550    1.1560    3.6270 hc        1 MOL      0.050462
     18 H7         -3.0220   -0.1190    3.2200 hc        1 MOL      0.050462
     19 N2         -1.9130    3.7280    1.2730 n         1 MOL     -0.466986
     20 C7         -2.0590    5.0780    0.6540 c3        1 MOL      0.217058
     21 C8         -3.0550    5.1640   -0.4800 c         1 MOL      0.304867
     22 O5         -3.6540    6.2370   -0.6630 o         1 MOL     -0.574811
     23 C9         -0.6450    5.6250    0.1160 c3        1 MOL     -0.299387
     24 H8         -1.2360    3.0960    0.8780 hn        1 MOL      0.341115
     25 H9         -2.3410    5.7860    1.4350 h1        1 MOL      0.043892
     26 H10        -0.7810    6.6010   -0.3290 hc        1 MOL      0.080177
     27 H11         0.0930    5.7480    0.9150 hc        1 MOL      0.080177
     28 H12        -0.2090    4.8870   -0.5570 hc        1 MOL      0.080177
     29 N3         -3.2140    4.1230   -1.2660 n         1 MOL     -0.006755
     30 C10        -4.2890    4.0200   -2.2330 c3        1 MOL      0.065212
     31 C11        -5.5090    3.1950   -1.8240 c         1 MOL      0.379268
     32 O6         -6.4980    3.0780   -2.6400 o         1 MOL     -0.526380
     33 C12        -3.7580    3.7590   -3.5830 c3        1 MOL     -0.221951
     34 C13        -3.1250    2.2930   -3.7110 c         1 MOL      0.762457
     35 O7         -3.2040    1.6570   -4.7020 o         1 MOL     -0.678788
     36 O8         -2.6110    1.7310   -2.7470 o         1 MOL     -0.678788
     37 H13        -2.7190    3.2520   -1.1300 hn        1 MOL      0.010925
     38 H14        -4.7760    4.9940   -2.2470 h1        1 MOL      0.080409
     39 H15        -2.9840    4.4850   -3.8420 hc        1 MOL      0.035298
     40 H16        -4.5310    3.8070   -4.3550 hc        1 MOL      0.035298
     41 N4         -5.6440    2.7370   -0.5680 n         1 MOL     -0.211478
     42 C14        -6.9250    2.1980   -0.0440 c3        1 MOL     -0.162174
     43 C15        -7.4520    0.9730   -0.7440 c         1 MOL      0.524306
     44 O9         -8.6490    0.8970   -0.9100 o         1 MOL     -0.576589
     45 H17        -4.9150    2.9680    0.1000 hn        1 MOL      0.234939
     46 H18        -7.6830    2.9740   -0.0960 h1        1 MOL      0.090221
     47 H19        -6.5980    1.9760    0.9690 h1        1 MOL      0.090221
     48 N5         -6.6210   -0.0040   -1.0770 n         1 MOL     -0.135761
     49 C16        -7.0660   -1.3370   -1.5700 c3        1 MOL     -0.029735
     50 C17        -7.1290   -2.4180   -0.4570 c         1 MOL      0.455415
     51 O10        -7.7610   -3.4280   -0.6370 o         1 MOL     -0.576473
     52 C18        -6.0620   -1.7650   -2.6210 c3        1 MOL     -0.216872
     53 C19        -4.7660   -2.2530   -2.0430 c         1 MOL      0.473768
     54 N6         -4.2100   -3.3220   -2.5320 n         1 MOL     -0.642364
     55 O11        -4.2230   -1.6530   -1.1400 o         1 MOL     -0.416800
     56 H20        -5.6460    0.1210   -0.8600 hn        1 MOL      0.068180
     57 H21        -8.0870   -1.1320   -1.8960 h1        1 MOL      0.089061
     58 H22        -5.8090   -0.9930   -3.3480 hc        1 MOL      0.082464
     59 H23        -6.5190   -2.6020   -3.1420 hc        1 MOL      0.082464
     60 H24        -4.6520   -3.8540   -3.2750 hn        1 MOL      0.319581
     61 H25        -3.4220   -3.6720   -2.0160 hn        1 MOL      0.319581
     62 N7         -6.4410   -2.1300    0.5860 n         1 MOL     -0.125100
     63 C20        -6.3200   -2.9630    1.7780 c3        1 MOL     -0.156944
     64 C21        -4.9950   -3.7440    1.9200 c         1 MOL      0.520141
     65 O12        -4.8790   -4.4920    2.9340 o         1 MOL     -0.615666
     66 H26        -6.0260   -1.2100    0.6300 hn        1 MOL      0.196679
     67 H27        -7.0850   -3.7460    1.7820 h1        1 MOL      0.093964
     68 H28        -6.3750   -2.4070    2.7150 h1        1 MOL      0.093964
     69 N8         -4.0110   -3.6610    1.0650 n         1 MOL     -0.101569
     70 C22        -2.7100   -4.2770    1.1860 c3        1 MOL     -0.107029
     71 C23        -1.5840   -3.2070    1.1260 c         1 MOL      0.655565
     72 O13        -1.7750   -2.0440    0.7220 o         1 MOL     -0.628000
     73 C24        -2.5330   -5.4240    0.1670 c3        1 MOL      0.217011
     74 C25        -3.6220   -6.4710    0.3500 c3        1 MOL     -0.325956
     75 O14        -2.3810   -4.9650   -1.1830 oh        1 MOL     -0.573048
     76 H29        -4.1110   -2.9840    0.3210 hn        1 MOL      0.113963
     77 H30        -2.6380   -4.7610    2.1610 h1        1 MOL      0.083206
     78 H31        -1.5750   -5.9130    0.3170 h1        1 MOL      0.035926
     79 H32        -2.6220   -5.7170   -1.7380 ho        1 MOL      0.403433
     80 H33        -3.2750   -7.3980   -0.1160 hc        1 MOL      0.090829
     81 H34        -3.7040   -6.7130    1.4050 hc        1 MOL      0.090829
     82 H35        -4.5910   -6.2490   -0.0850 hc        1 MOL      0.090829
     83 N9         -0.4440   -3.5480    1.7700 n         1 MOL     -0.440203
     84 C26         0.7230   -2.6230    1.8460 c3        1 MOL     -0.039221
     85 C27         1.6840   -3.0140    0.7130 c         1 MOL      0.459484
     86 O15         2.1980   -4.0890    0.5740 o         1 MOL     -0.572380
     87 C28         1.5170   -2.7770    3.1950 c3        1 MOL      0.283463
     88 C29         0.6420   -2.4160    4.4260 c3        1 MOL     -0.275392
     89 C30         2.7710   -1.8610    3.3110 c3        1 MOL     -0.269691
     90 C31        -0.2940   -1.1990    4.1910 c3        1 MOL      0.145127
     91 H36        -0.3630   -4.4660    2.1820 hn        1 MOL      0.266307
     92 H37         0.3510   -1.6050    1.6690 h1        1 MOL      0.092042
     93 H38         1.8320   -3.8030    3.3940 hc        1 MOL     -0.013057
     94 H39         1.2550   -2.1140    5.2780 hc        1 MOL      0.042325
     95 H40         0.1080   -3.3350    4.6510 hc        1 MOL      0.042325
     96 H41         3.5150   -2.0930    2.5430 hc        1 MOL      0.048840
     97 H42         2.4650   -0.8120    3.3670 hc        1 MOL      0.048840
     98 H43         3.2210   -1.9720    4.2880 hc        1 MOL      0.048840
     99 H44        -1.2560   -1.4850    3.7560 hc        1 MOL     -0.022174
    100 H45        -0.5610   -0.7250    5.1320 hc        1 MOL     -0.022174
    101 H46         0.2080   -0.4720    3.5530 hc        1 MOL     -0.022174
    102 N10         2.0410   -1.9550   -0.0430 n         1 MOL     -0.217430
    103 C32         3.0580   -1.9930   -1.1630 c3        1 MOL      0.127812
    104 C33         4.4710   -1.6480   -0.6600 c         1 MOL      0.480222
    105 O16         4.7500   -1.2760    0.4810 o         1 MOL     -0.411675
    106 C34         2.6450   -1.0640   -2.4080 c3        1 MOL     -0.276819
    107 C35         1.1220   -1.2280   -2.7960 c         1 MOL      0.780879
    108 O17         0.3320   -0.2690   -2.6080 o         1 MOL     -0.690810
    109 O18         0.8410   -2.3430   -3.2350 o         1 MOL     -0.690810
    110 H47         1.7060   -1.0380    0.2210 hn        1 MOL      0.120961
    111 H48         3.1010   -2.9960   -1.5990 h1        1 MOL      0.059228
    112 H49         3.3030   -1.2780   -3.2390 hc        1 MOL      0.051246
    113 H50         2.7390    0.0100   -2.2640 hc        1 MOL      0.051246
    114 N11         5.4280   -1.7310   -1.5680 n         1 MOL     -0.703261
    115 C36         6.7730   -1.3220   -1.3000 c3        1 MOL      0.549883
    116 C37         6.8690    0.1130   -0.8210 c         1 MOL      0.225921
    117 O19         7.4690    0.3380    0.2290 o         1 MOL     -0.450957
    118 C38         7.7280   -1.7800   -2.3610 c3        1 MOL     -0.320967
    119 C39         9.1240   -1.6760   -1.8220 ca        1 MOL      0.230026
    120 C40         9.5610   -2.4170   -0.7140 ca        1 MOL     -0.265771
    121 C41        10.1180   -0.8680   -2.4930 ca        1 MOL     -0.265771
    122 C42        10.9690   -2.3080   -0.2450 ca        1 MOL     -0.063088
    123 C43        11.4160   -0.6880   -1.9740 ca        1 MOL     -0.063088
    124 C44        11.8400   -1.4300   -0.8760 ca        1 MOL     -0.147351
    125 H51         5.3020   -2.1930   -2.4560 hn        1 MOL      0.335012
    126 H52         7.1330   -1.8770   -0.4250 h1        1 MOL      0.020624
    127 H53         7.6360   -1.2180   -3.2970 hc        1 MOL      0.076284
    128 H54         7.4890   -2.8140   -2.6080 hc        1 MOL      0.076284
    129 H55         8.8560   -3.0300   -0.1740 ha        1 MOL      0.139196
    130 H56         9.8950   -0.3450   -3.4010 ha        1 MOL      0.139196
    131 H57        11.2960   -2.9030    0.5860 ha        1 MOL      0.106632
    132 H58        12.1290    0.0060   -2.3720 ha        1 MOL      0.106632
    133 H59        12.8500   -1.2990   -0.5220 ha        1 MOL      0.106063
    134 N12         6.3760    1.1680   -1.5350 n         1 MOL     -0.073747
    135 C45         6.6040    2.6220   -1.1070 c3        1 MOL     -0.061097
    136 C46         5.8990    2.8060    0.2800 c         1 MOL      0.426791
    137 O20         6.4560    3.5100    1.1330 o         1 MOL     -0.535252
    138 C47         5.9560    3.4620   -2.1940 c3        1 MOL      0.003517
    139 C48         6.0030    2.5560   -3.3980 c3        1 MOL      0.047224
    140 C49         5.6390    1.2070   -2.8550 c3        1 MOL     -0.152314
    141 H60         7.6700    2.8570   -1.0420 h1        1 MOL      0.082037
    142 H61         4.9060    3.4450   -1.9200 hc        1 MOL      0.030189
    143 H62         6.3310    4.4680   -2.3390 hc        1 MOL      0.030189
    144 H63         5.3460    2.9240   -4.2000 hc        1 MOL      0.003546
    145 H64         6.9870    2.4770   -3.8500 hc        1 MOL      0.003546
    146 H65         4.5640    1.0860   -2.7280 h1        1 MOL      0.077159
    147 H66         6.0410    0.4460   -3.5190 h1        1 MOL      0.077159
    148 N13         4.7930    2.1930    0.5140 n         1 MOL     -0.235849
    149 C50         4.0210    2.3200    1.7550 c3        1 MOL     -0.246275
    150 C51         4.6720    1.5170    2.8510 c         1 MOL      0.527297
    151 O21         4.6520    1.9470    3.9990 o         1 MOL     -0.574087
    152 C52         2.5980    1.7950    1.5250 c3        1 MOL      0.050653
    153 C53         1.8060    2.1460    0.2450 c3        1 MOL     -0.100919
    154 C54         0.3820    1.5630    0.0780 c         1 MOL      0.649490
    155 O22         0.2280    0.3320    0.2440 o         1 MOL     -0.674865
    156 O23        -0.5790    2.2210   -0.4020 o         1 MOL     -0.674865
    157 H67         4.4930    1.5420   -0.2020 hn        1 MOL      0.268740
    158 H68         3.8800    3.3760    1.9940 h1        1 MOL      0.160668
    159 H69         1.9620    2.0630    2.3740 hc        1 MOL      0.054910
    160 H70         2.5910    0.7040    1.5760 hc        1 MOL      0.054910
    161 H71         2.3430    1.8340   -0.6530 hc        1 MOL      0.007561
    162 H72         1.6710    3.2250    0.2910 hc        1 MOL      0.007561
    163 N14         5.3350    0.3610    2.5630 n         1 MOL      0.037380
    164 C55         6.3510   -0.2220    3.4350 c3        1 MOL     -0.146563
    165 H73         6.1910    0.1210    4.4570 h1        1 MOL      0.053271
    166 H74         6.2790   -1.3100    3.4010 h1        1 MOL      0.053271
    167 H75         7.3400    0.0880    3.0990 h1        1 MOL      0.053271
    168 H76         5.3920    0.0090    1.6220 hn        1 MOL      0.011634
    169 Ca1        -1.7830   -0.0650   -1.1840 Ca        1 MOL      1.702305
    170 O24        -2.6930   -0.7060   -3.7290 oh        1 MOL     -0.813298
    171 H77        -3.4470   -1.1250   -4.1430 ho        1 MOL      0.373012
    172 H78        -2.8420    0.2310   -3.8630 ho        1 MOL      0.373012
    173 O25        -1.3880   -2.7060   -1.9640 oh        1 MOL     -0.813298
    174 H79        -1.6300   -3.6310   -1.8450 ho        1 MOL      0.373012
    175 H80        -0.5400   -2.7430   -2.4050 ho        1 MOL      0.373012
@<TRIPOS>BOND
     1    1    2 1   
     2    1    4 1   
     3    1    5 1   
     4    1    6 1   
     5    2    3 2   
     6    2    7 1   
     7    7    8 1   
     8    7   15 1   
     9    8    9 1   
    10    8   11 1   
    11    8   16 1   
    12    9   10 2   
    13    9   19 1   
    14   11   12 1   
    15   11   17 1   
    16   11   18 1   
    17   12   13 1   
    18   12   14 1   
    19   19   20 1   
    20   19   24 1   
    21   20   21 1   
    22   20   23 1   
    23   20   25 1   
    24   21   22 2   
    25   21   29 1   
    26   23   26 1   
    27   23   27 1   
    28   23   28 1   
    29   29   30 1   
    30   29   37 1   
    31   30   31 1   
    32   30   33 1   
    33   30   38 1   
    34   31   32 2   
    35   31   41 1   
    36   33   34 1   
    37   33   39 1   
    38   33   40 1   
    39   34   35 1   
    40   34   36 1   
    41   41   42 1   
    42   41   45 1   
    43   42   43 1   
    44   42   46 1   
    45   42   47 1   
    46   43   44 2   
    47   43   48 1   
    48   48   49 1   
    49   48   56 1   
    50   49   50 1   
    51   49   52 1   
    52   49   57 1   
    53   50   51 2   
    54   50   62 1   
    55   52   53 1   
    56   52   58 1   
    57   52   59 1   
    58   53   54 1   
    59   53   55 2   
    60   54   60 1   
    61   54   61 1   
    62   62   63 1   
    63   62   66 1   
    64   63   64 1   
    65   63   67 1   
    66   63   68 1   
    67   64   65 2   
    68   64   69 1   
    69   69   70 1   
    70   69   76 1   
    71   70   71 1   
    72   70   73 1   
    73   70   77 1   
    74   71   72 2   
    75   71   83 1   
    76   73   74 1   
    77   73   75 1   
    78   73   78 1   
    79   74   80 1   
    80   74   81 1   
    81   74   82 1   
    82   75   79 1   
    83   83   84 1   
    84   83   91 1   
    85   84   85 1   
    86   84   87 1   
    87   84   92 1   
    88   85   86 2   
    89   85  102 1   
    90   87   88 1   
    91   87   89 1   
    92   87   93 1   
    93   88   90 1   
    94   88   94 1   
    95   88   95 1   
    96   89   96 1   
    97   89   97 1   
    98   89   98 1   
    99   90   99 1   
   100   90  100 1   
   101   90  101 1   
   102  102  103 1   
   103  102  110 1   
   104  103  104 1   
   105  103  106 1   
   106  103  111 1   
   107  104  105 2   
   108  104  114 1   
   109  106  107 1   
   110  106  112 1   
   111  106  113 1   
   112  107  108 1   
   113  107  109 1   
   114  114  115 1   
   115  114  125 1   
   116  115  116 1   
   117  115  118 1   
   118  115  126 1   
   119  116  117 2   
   120  116  134 1   
   121  118  119 1   
   122  118  127 1   
   123  118  128 1   
   124  119  120 ar  
   125  119  121 ar  
   126  120  122 ar  
   127  120  129 1   
   128  121  123 ar  
   129  121  130 1   
   130  122  124 ar  
   131  122  131 1   
   132  123  124 ar  
   133  123  132 1   
   134  124  133 1   
   135  134  135 1   
   136  134  140 1   
   137  135  136 1   
   138  135  138 1   
   139  135  141 1   
   140  136  137 2   
   141  136  148 1   
   142  138  139 1   
   143  138  142 1   
   144  138  143 1   
   145  139  140 1   
   146  139  144 1   
   147  139  145 1   
   148  140  146 1   
   149  140  147 1   
   150  148  149 1   
   151  148  157 1   
   152  149  150 1   
   153  149  152 1   
   154  149  158 1   
   155  150  151 2   
   156  150  163 1   
   157  152  153 1   
   158  152  159 1   
   159  152  160 1   
   160  153  154 1   
   161  153  161 1   
   162  153  162 1   
   163  154  155 1   
   164  154  156 1   
   165  163  164 1   
   166  163  168 1   
   167  164  165 1   
   168  164  166 1   
   169  164  167 1   
   170  170  171 1   
   171  170  172 1   
   172  173  174 1   
   173  173  175 1   
@<TRIPOS>SUBSTRUCTURE
     1 MOL         1 TEMP              0 ****  ****    0 ROOT
