@<TRIPOS>MOLECULE
MOL
  189   185     1     0     0
SMALL
resp


@<TRIPOS>ATOM
      1 C1         -0.0830    3.0680   -5.0100 c3        1 MOL     -0.237555
      2 C2          0.6380    2.7690   -3.6580 c         1 MOL      0.528571
      3 O1          0.2530    3.3700   -2.6670 o         1 MOL     -0.675792
      4 H1         -1.0780    2.6250   -4.9970 hc        1 MOL      0.064601
      5 H2         -0.1680    4.1460   -5.1470 hc        1 MOL      0.064601
      6 H3          0.4930    2.6420   -5.8310 hc        1 MOL      0.064601
      7 N1          1.6460    1.9730   -3.5030 n         1 MOL     -0.251749
      8 C3          2.3260    1.5490   -2.2600 c3        1 MOL      0.080091
      9 C4          2.9070    2.7620   -1.5370 c         1 MOL      0.247041
     10 O2          4.0070    3.2410   -1.8120 o         1 MOL     -0.452794
     11 C5          3.3650    0.5180   -2.6770 c3        1 MOL     -0.197482
     12 C6          4.0130   -0.1590   -1.4510 c         1 MOL      0.720583
     13 O3          5.1050   -0.6010   -1.5660 o         1 MOL     -0.649584
     14 O4          3.5710   -0.0720   -0.2640 o         1 MOL     -0.649584
     15 H4          2.1010    1.5790   -4.3130 hn        1 MOL      0.222144
     16 H5          1.5570    1.0440   -1.6800 h1        1 MOL      0.032363
     17 H6          4.1540    0.9540   -3.2850 hc        1 MOL      0.072980
     18 H7          2.8990   -0.2970   -3.2340 hc        1 MOL      0.072980
     19 N2          2.1010    3.2900   -0.5680 n         1 MOL     -0.110421
     20 C7          2.2660    4.7680   -0.1810 c3        1 MOL      0.007087
     21 C8          3.2340    4.9860    0.9010 c         1 MOL      0.522270
     22 O5          3.9390    5.9990    0.8740 o         1 MOL     -0.588336
     23 C9          0.8850    5.2720    0.2850 c3        1 MOL      0.079526
     24 C10         0.5620    6.7870    0.0680 c3        1 MOL      0.181457
     25 C11         0.9660    7.3600   -1.3130 c3        1 MOL     -0.020994
     26 C12         0.6350    6.4660   -2.5550 c3        1 MOL      0.058146
     27 N3         -0.5410    6.9680   -3.3230 n4        1 MOL     -0.440245
     28 H8          1.2900    2.7400   -0.3210 hn        1 MOL      0.227494
     29 H9          2.6820    5.3310   -1.0070 h1        1 MOL      0.045891
     30 H10         0.9080    5.1110    1.3650 hc        1 MOL     -0.012211
     31 H11         0.1180    4.7050   -0.2500 hc        1 MOL     -0.012211
     32 H12         1.0820    7.3080    0.8790 hc        1 MOL     -0.055098
     33 H13        -0.5020    6.9050    0.2830 hc        1 MOL     -0.055098
     34 H14         2.0530    7.4210   -1.2830 hc        1 MOL      0.004492
     35 H15         0.6930    8.4100   -1.4070 hc        1 MOL      0.004492
     36 H16         0.3970    5.4860   -2.1550 hx        1 MOL      0.099015
     37 H17         1.4500    6.5850   -3.2670 hx        1 MOL      0.099015
     38 H18        -0.7210    6.3390   -4.0890 hn        1 MOL      0.336019
     39 H19        -1.3370    7.2150   -2.7440 hn        1 MOL      0.336019
     40 H20        -0.2730    7.7320   -3.9380 hn        1 MOL      0.336019
     41 N4          3.4210    4.0270    1.7960 n         1 MOL     -0.261008
     42 C13         4.5130    3.9260    2.7260 c3        1 MOL      0.064117
     43 C14         5.7340    3.3040    2.0490 c         1 MOL      0.403045
     44 O6          6.8310    3.5640    2.4840 o         1 MOL     -0.542805
     45 C15         4.0500    3.1270    3.9630 c3        1 MOL     -0.479656
     46 C16         3.1000    1.8860    3.7160 c         1 MOL      0.749609
     47 O7          2.7710    1.3540    4.7510 o         1 MOL     -0.655704
     48 O8          2.7610    1.4540    2.6050 o         1 MOL     -0.655704
     49 H21         2.9150    3.1680    1.6310 hn        1 MOL      0.180313
     50 H22         4.7640    4.9520    3.0150 h1        1 MOL      0.082516
     51 H23         3.5380    3.9010    4.5350 hc        1 MOL      0.147465
     52 H24         4.9140    2.6880    4.4580 hc        1 MOL      0.147465
     53 N5          5.5650    2.5220    0.9980 n         1 MOL      0.159062
     54 C17         6.6920    1.8600    0.3350 c3        1 MOL     -0.231190
     55 C18         7.1920    0.6050    0.9830 c         1 MOL      0.668840
     56 O9          8.3930    0.5440    1.2790 o         1 MOL     -0.576297
     57 H25         4.6440    2.4610    0.5810 hn        1 MOL     -0.139917
     58 H26         7.5290    2.5130    0.0710 h1        1 MOL      0.099699
     59 H27         6.1590    1.5010   -0.5480 h1        1 MOL      0.099699
     60 N6          6.2670   -0.4070    1.2120 n         1 MOL     -0.485048
     61 C19         6.6180   -1.6880    2.0260 c3        1 MOL      0.093940
     62 C20         6.8740   -2.9180    1.1200 c         1 MOL      0.394887
     63 O10         7.2500   -3.9580    1.5580 o         1 MOL     -0.502580
     64 C21         5.6520   -1.9790    3.1750 c3        1 MOL     -0.209654
     65 C22         4.2490   -2.1120    2.6790 c         1 MOL      0.845372
     66 O11         3.3700   -1.7040    3.3740 o         1 MOL     -0.730524
     67 O12         3.9550   -2.4600    1.5260 o         1 MOL     -0.730524
     68 H28         5.3840   -0.2910    0.7230 hn        1 MOL      0.140764
     69 H29         7.5620   -1.5260    2.5440 h1        1 MOL      0.096569
     70 H30         5.6550   -1.1930    3.9330 hc        1 MOL      0.070629
     71 H31         6.0570   -2.8800    3.6320 hc        1 MOL      0.070629
     72 N7          6.5500   -2.7920   -0.1900 n         1 MOL     -0.293777
     73 C23         6.5920   -3.8770   -1.2170 c3        1 MOL     -0.089318
     74 C24         5.2540   -4.4580   -1.6260 c         1 MOL      0.555923
     75 O13         5.1520   -5.3060   -2.4820 o         1 MOL     -0.576518
     76 H32         6.1480   -1.9200   -0.4970 hn        1 MOL      0.256416
     77 H33         7.1300   -4.7260   -0.7790 h1        1 MOL      0.084869
     78 H34         7.0580   -3.5710   -2.1450 h1        1 MOL      0.084869
     79 N8          4.1250   -3.9600   -1.0050 n         1 MOL     -0.277649
     80 C25         2.8470   -4.5790   -1.1760 c3        1 MOL     -0.178282
     81 C26         1.7410   -3.5390   -1.2390 c         1 MOL      0.722122
     82 O14         1.8680   -2.5020   -0.6110 o         1 MOL     -0.697473
     83 C27         2.5360   -5.5790   -0.0840 c3        1 MOL      0.556193
     84 C28         3.2030   -6.8930   -0.2030 c3        1 MOL     -0.494552
     85 O15         2.8970   -5.0240    1.1820 oh        1 MOL     -0.663707
     86 H35         4.2590   -3.2720   -0.2760 hn        1 MOL      0.247925
     87 H36         2.6740   -5.0560   -2.1360 h1        1 MOL      0.085520
     88 H37         1.4680   -5.7890   -0.0620 h1        1 MOL     -0.059177
     89 H38         3.4300   -4.2380    1.0200 ho        1 MOL      0.404061
     90 H39         2.8770   -7.2390   -1.1850 hc        1 MOL      0.123086
     91 H40         4.2760   -6.7700   -0.0240 hc        1 MOL      0.123086
     92 H41         2.8740   -7.6230    0.5510 hc        1 MOL      0.123086
     93 N9          0.6590   -3.7800   -1.9790 n         1 MOL     -0.671153
     94 C29        -0.5360   -2.9350   -2.1430 c3        1 MOL      0.205697
     95 C30        -1.7490   -3.4380   -1.4170 c         1 MOL      0.436454
     96 O16        -2.1370   -4.5740   -1.6590 o         1 MOL     -0.552452
     97 C31        -0.7820   -2.7270   -3.6330 c3        1 MOL     -0.004918
     98 C32         0.3860   -1.8160   -4.3310 c3        1 MOL      0.138846
     99 C33        -2.1470   -2.0300   -3.9380 c3        1 MOL     -0.166901
    100 C34         0.4130   -1.8380   -5.8760 c3        1 MOL     -0.042577
    101 H42         0.6060   -4.7030   -2.3870 hn        1 MOL      0.308447
    102 H43        -0.2850   -1.9960   -1.6430 h1        1 MOL      0.050375
    103 H44        -0.8510   -3.7590   -3.9890 hc        1 MOL      0.042207
    104 H45         1.3380   -2.2930   -4.0940 hc        1 MOL     -0.032676
    105 H46         0.4790   -0.7960   -3.9550 hc        1 MOL     -0.032676
    106 H47        -2.4550   -2.0610   -4.9810 hc        1 MOL      0.026690
    107 H48        -2.9690   -2.6180   -3.5240 hc        1 MOL      0.026690
    108 H49        -2.1660   -1.0020   -3.5740 hc        1 MOL      0.026690
    109 H50         1.3050   -1.4180   -6.3570 hc        1 MOL      0.001379
    110 H51         0.2310   -2.8400   -6.2650 hc        1 MOL      0.001379
    111 H52        -0.4070   -1.1810   -6.1680 hc        1 MOL      0.001379
    112 N10        -2.3510   -2.6710   -0.5260 n         1 MOL     -0.101302
    113 C35        -3.6250   -2.9100    0.1570 c3        1 MOL     -0.078967
    114 C36        -4.8240   -2.2120   -0.5350 c         1 MOL      0.476729
    115 O17        -4.6340   -1.1720   -1.1550 o         1 MOL     -0.467985
    116 C37        -3.5940   -2.4820    1.6290 c3        1 MOL      0.329908
    117 C38        -2.5470   -3.2150    2.5160 c3        1 MOL     -0.375019
    118 O18        -3.2020   -1.1450    1.6890 oh        1 MOL     -0.596829
    119 H53        -1.9720   -1.7640   -0.3120 hn        1 MOL      0.156885
    120 H54        -3.7780   -3.9900    0.0770 h1        1 MOL      0.041279
    121 H55        -4.6250   -2.5480    2.0090 h1        1 MOL     -0.013590
    122 H56        -2.3410   -1.0510    1.2850 ho        1 MOL      0.440878
    123 H57        -2.2090   -2.6100    3.3550 hc        1 MOL      0.098509
    124 H58        -2.8370   -4.1870    2.9270 hc        1 MOL      0.098509
    125 H59        -1.7550   -3.3980    1.7990 hc        1 MOL      0.098509
    126 N11        -6.0210   -2.6890   -0.2120 n         1 MOL     -0.324814
    127 C39        -7.2760   -2.1260   -0.8040 c3        1 MOL     -0.261331
    128 C40        -7.4690   -0.6620   -0.5930 c         1 MOL      0.482771
    129 O19        -7.9270    0.0220   -1.4950 o         1 MOL     -0.509903
    130 C41        -8.5540   -2.8850   -0.2380 c3        1 MOL      0.306052
    131 C42        -8.5380   -4.3550   -0.6930 c3        1 MOL     -0.253329
    132 O20        -8.4480   -2.9030    1.0660 oh        1 MOL     -0.617181
    133 H60        -6.0980   -3.4930    0.3810 hn        1 MOL      0.281984
    134 H61        -7.2270   -2.3410   -1.8760 h1        1 MOL      0.183992
    135 H62        -9.4610   -2.4170   -0.6200 h1        1 MOL      0.040058
    136 H63        -9.3470   -3.1290    1.3390 ho        1 MOL      0.403229
    137 H64        -8.6800   -4.3010   -1.7720 hc        1 MOL      0.071511
    138 H65        -7.6420   -4.9450   -0.4950 hc        1 MOL      0.071511
    139 H66        -9.3940   -4.8620   -0.2560 hc        1 MOL      0.071511
    140 N12        -7.0280   -0.1320    0.5420 n         1 MOL     -0.366400
    141 C43        -7.0850    1.3120    0.9350 c3        1 MOL      0.001512
    142 C44        -5.9940    2.1280    0.1140 c         1 MOL      0.372635
    143 O21        -6.2150    3.2930   -0.1570 o         1 MOL     -0.510955
    144 C45        -7.0280    1.4650    2.4780 c3        1 MOL     -0.228639
    145 C46        -8.0990    0.7220    3.2680 c3        1 MOL      0.198083
    146 C47        -8.2100    1.2900    4.6690 c3        1 MOL     -0.067294
    147 C48        -9.3680    0.4940    5.3460 c3        1 MOL      0.101443
    148 N13        -9.6860    0.9870    6.6920 n4        1 MOL     -0.319679
    149 H67        -6.6650   -0.7760    1.2340 hn        1 MOL      0.327299
    150 H68        -8.0430    1.7660    0.6620 h1        1 MOL      0.114387
    151 H69        -7.1770    2.5430    2.5650 hc        1 MOL      0.071631
    152 H70        -6.0300    1.1710    2.8310 hc        1 MOL      0.071631
    153 H71        -7.8780   -0.3410    3.3190 hc        1 MOL     -0.025861
    154 H72        -9.0310    0.7470    2.7000 hc        1 MOL     -0.025861
    155 H73        -8.4170    2.3620    4.6360 hc        1 MOL      0.046284
    156 H74        -7.2910    1.1210    5.2340 hc        1 MOL      0.046284
    157 H75        -9.0530   -0.5360    5.4040 hx        1 MOL      0.051093
    158 H76       -10.2590    0.5110    4.7190 hx        1 MOL      0.051093
    159 H77       -10.4360    0.4010    7.0260 hn        1 MOL      0.289054
    160 H78        -8.9230    0.7560    7.3200 hn        1 MOL      0.289054
    161 H79        -9.8450    1.9870    6.6950 hn        1 MOL      0.289054
    162 N14        -4.8480    1.5590   -0.2660 n         1 MOL     -0.005595
    163 C49        -3.9010    2.2020   -1.1340 c3        1 MOL     -0.292496
    164 C50        -4.4050    2.2290   -2.5980 c         1 MOL      0.609673
    165 O22        -4.2590    3.2910   -3.1910 o         1 MOL     -0.587089
    166 C51        -2.5440    1.5770   -1.0550 c3        1 MOL      0.173073
    167 C52        -1.9710    1.6660    0.3360 c3        1 MOL      0.064403
    168 C53        -0.6360    0.8610    0.3520 c         1 MOL      0.837165
    169 O23         0.4450    1.4330    0.6250 o         1 MOL     -0.810834
    170 O24        -0.7690   -0.3960    0.4440 o         1 MOL     -0.810834
    171 H80        -4.7650    0.5780   -0.0510 hn        1 MOL      0.090217
    172 H81        -3.8560    3.2450   -0.7980 h1        1 MOL      0.147323
    173 H82        -1.8050    2.0920   -1.6780 hc        1 MOL     -0.022250
    174 H83        -2.6100    0.5450   -1.4200 hc        1 MOL     -0.022250
    175 H84        -2.6130    1.2110    1.0990 hc        1 MOL     -0.063697
    176 H85        -1.9070    2.7190    0.6040 hc        1 MOL     -0.063697
    177 N15        -5.0870    1.1650   -3.0620 n         1 MOL     -0.289577
    178 C54        -5.8900    1.3180   -4.3370 c3        1 MOL     -0.212443
    179 H86        -6.8420    0.7980   -4.2300 h1        1 MOL      0.101107
    180 H87        -6.0740    2.3750   -4.5270 h1        1 MOL      0.101107
    181 H88        -5.3340    0.8890   -5.1700 h1        1 MOL      0.101107
    182 H89        -5.2230    0.3890   -2.4260 hn        1 MOL      0.254171
    183 Ca1         1.9100   -0.7870    1.4130 Ca        1 MOL      1.767263
    184 O25         0.7130   -0.5150    3.6780 oh        1 MOL     -0.854549
    185 H90         1.5270   -0.0320    3.8380 ho        1 MOL      0.400473
    186 H91         0.1520   -0.3040    4.4240 ho        1 MOL      0.400473
    187 O26         0.9580   -3.2220    1.9180 oh        1 MOL     -0.854549
    188 H92         1.3380   -4.0720    1.6880 ho        1 MOL      0.400473
    189 H93         0.1810   -3.4430    2.4350 ho        1 MOL      0.400473
@<TRIPOS>BOND
     1    1    2 1   
     2    1    4 1   
     3    1    5 1   
     4    1    6 1   
     5    2    3 2   
     6    2    7 1   
     7    7    8 1   
     8    7   15 1   
     9    8    9 1   
    10    8   11 1   
    11    8   16 1   
    12    9   10 2   
    13    9   19 1   
    14   11   12 1   
    15   11   17 1   
    16   11   18 1   
    17   12   13 1   
    18   12   14 1   
    19   19   20 1   
    20   19   28 1   
    21   20   21 1   
    22   20   23 1   
    23   20   29 1   
    24   21   22 2   
    25   21   41 1   
    26   23   24 1   
    27   23   30 1   
    28   23   31 1   
    29   24   25 1   
    30   24   32 1   
    31   24   33 1   
    32   25   26 1   
    33   25   34 1   
    34   25   35 1   
    35   26   27 1   
    36   26   36 1   
    37   26   37 1   
    38   27   38 1   
    39   27   39 1   
    40   27   40 1   
    41   41   42 1   
    42   41   49 1   
    43   42   43 1   
    44   42   45 1   
    45   42   50 1   
    46   43   44 2   
    47   43   53 1   
    48   45   46 1   
    49   45   51 1   
    50   45   52 1   
    51   46   47 1   
    52   46   48 1   
    53   53   54 1   
    54   53   57 1   
    55   54   55 1   
    56   54   58 1   
    57   54   59 1   
    58   55   56 2   
    59   55   60 1   
    60   60   61 1   
    61   60   68 1   
    62   61   62 1   
    63   61   64 1   
    64   61   69 1   
    65   62   63 2   
    66   62   72 1   
    67   64   65 1   
    68   64   70 1   
    69   64   71 1   
    70   65   66 1   
    71   65   67 1   
    72   72   73 1   
    73   72   76 1   
    74   73   74 1   
    75   73   77 1   
    76   73   78 1   
    77   74   75 2   
    78   74   79 1   
    79   79   80 1   
    80   79   86 1   
    81   80   81 1   
    82   80   83 1   
    83   80   87 1   
    84   81   82 2   
    85   81   93 1   
    86   83   84 1   
    87   83   85 1   
    88   83   88 1   
    89   84   90 1   
    90   84   91 1   
    91   84   92 1   
    92   85   89 1   
    93   93   94 1   
    94   93  101 1   
    95   94   95 1   
    96   94   97 1   
    97   94  102 1   
    98   95   96 2   
    99   95  112 1   
   100   97   98 1   
   101   97   99 1   
   102   97  103 1   
   103   98  100 1   
   104   98  104 1   
   105   98  105 1   
   106   99  106 1   
   107   99  107 1   
   108   99  108 1   
   109  100  109 1   
   110  100  110 1   
   111  100  111 1   
   112  112  113 1   
   113  112  119 1   
   114  113  114 1   
   115  113  116 1   
   116  113  120 1   
   117  114  115 2   
   118  114  126 1   
   119  116  117 1   
   120  116  118 1   
   121  116  121 1   
   122  117  123 1   
   123  117  124 1   
   124  117  125 1   
   125  118  122 1   
   126  126  127 1   
   127  126  133 1   
   128  127  128 1   
   129  127  130 1   
   130  127  134 1   
   131  128  129 2   
   132  128  140 1   
   133  130  131 1   
   134  130  132 1   
   135  130  135 1   
   136  131  137 1   
   137  131  138 1   
   138  131  139 1   
   139  132  136 1   
   140  140  141 1   
   141  140  149 1   
   142  141  142 1   
   143  141  144 1   
   144  141  150 1   
   145  142  143 2   
   146  142  162 1   
   147  144  145 1   
   148  144  151 1   
   149  144  152 1   
   150  145  146 1   
   151  145  153 1   
   152  145  154 1   
   153  146  147 1   
   154  146  155 1   
   155  146  156 1   
   156  147  148 1   
   157  147  157 1   
   158  147  158 1   
   159  148  159 1   
   160  148  160 1   
   161  148  161 1   
   162  162  163 1   
   163  162  171 1   
   164  163  164 1   
   165  163  166 1   
   166  163  172 1   
   167  164  165 2   
   168  164  177 1   
   169  166  167 1   
   170  166  173 1   
   171  166  174 1   
   172  167  168 1   
   173  167  175 1   
   174  167  176 1   
   175  168  169 1   
   176  168  170 1   
   177  177  178 1   
   178  177  182 1   
   179  178  179 1   
   180  178  180 1   
   181  178  181 1   
   182  184  185 1   
   183  184  186 1   
   184  187  188 1   
   185  187  189 1   
@<TRIPOS>SUBSTRUCTURE
     1 MOL         1 TEMP              0 ****  ****    0 ROOT
