@<TRIPOS>MOLECULE
MOL
  189   185     1     0     0
SMALL
resp


@<TRIPOS>ATOM
      1 C1          2.3270   -3.3490    6.4250 c3        1 MOL     -0.404603
      2 C2          2.0790   -3.1740    4.8960 c         1 MOL      0.717001
      3 O1          1.6710   -2.0990    4.4690 o         1 MOL     -0.583797
      4 H1          3.3000   -2.9330    6.6860 hc        1 MOL      0.100264
      5 H2          1.5480   -2.8280    6.9830 hc        1 MOL      0.100264
      6 H3          2.3070   -4.4090    6.6780 hc        1 MOL      0.100264
      7 N1          2.5600   -4.0860    4.0510 n         1 MOL     -0.594568
      8 C3          2.9470   -3.7100    2.6940 c3        1 MOL      0.238283
      9 C4          2.8310   -4.7830    1.6800 c         1 MOL      0.458758
     10 O2          3.1830   -5.9140    2.0650 o         1 MOL     -0.610071
     11 C5          4.4110   -3.2910    2.5950 c3        1 MOL     -0.196047
     12 C6          4.8710   -2.8180    1.2730 c         1 MOL      0.608616
     13 O3          4.1190   -2.2290    0.4930 o         1 MOL     -0.642266
     14 O4          6.0940   -3.0450    1.0230 o         1 MOL     -0.642266
     15 H4          2.8020   -5.0300    4.2990 hn        1 MOL      0.306665
     16 H5          2.3800   -2.8380    2.3850 h1        1 MOL      0.012071
     17 H6          5.0400   -4.1530    2.8170 hc        1 MOL      0.043064
     18 H7          4.5820   -2.6450    3.4580 hc        1 MOL      0.043064
     19 N2          2.4500   -4.5490    0.4570 n         1 MOL      0.018403
     20 C7          2.4230   -5.5140   -0.6390 c3        1 MOL     -0.355097
     21 C8          3.1400   -5.0940   -1.9770 c         1 MOL      0.586497
     22 O5          3.3160   -6.0060   -2.7690 o         1 MOL     -0.606661
     23 C9          0.9600   -6.0360   -0.8130 c3        1 MOL      0.353829
     24 C10        -0.0450   -5.0030   -1.3850 c3        1 MOL      0.047236
     25 C11         0.5810   -6.8660    0.4790 c3        1 MOL     -0.192784
     26 C12        -1.3460   -5.6360   -1.7120 c3        1 MOL     -0.064475
     27 H8          2.1110   -3.6180    0.2580 hn        1 MOL      0.053948
     28 H9          3.0720   -6.3370   -0.3660 h1        1 MOL      0.138759
     29 H10         0.9860   -6.8140   -1.5790 hc        1 MOL     -0.060458
     30 H11         0.3030   -4.6320   -2.3470 hc        1 MOL      0.000248
     31 H12        -0.0470   -4.1330   -0.7100 hc        1 MOL      0.000248
     32 H13         0.3560   -6.1480    1.2710 hc        1 MOL      0.024707
     33 H14        -0.3050   -7.4180    0.1450 hc        1 MOL      0.024707
     34 H15         1.4040   -7.5330    0.7160 hc        1 MOL      0.024707
     35 H16        -2.0200   -5.0120   -2.2870 hc        1 MOL      0.003135
     36 H17        -1.1310   -6.5390   -2.2770 hc        1 MOL      0.003135
     37 H18        -1.8710   -5.8810   -0.7900 hc        1 MOL      0.003135
     38 N3          3.5120   -3.8840   -2.2470 n         1 MOL     -0.347614
     39 C13         3.9750   -3.3560   -3.5180 c3        1 MOL      0.027933
     40 C14         5.2360   -2.4550   -3.4130 c         1 MOL      0.338067
     41 O6          5.8730   -2.0680   -4.4280 o         1 MOL     -0.563401
     42 C15         2.8510   -2.5630   -4.1930 c3        1 MOL     -0.325741
     43 C16         2.3640   -1.3050   -3.4510 c         1 MOL      0.702163
     44 O7          2.9000   -1.1010   -2.3670 o         1 MOL     -0.659923
     45 O8          1.5650   -0.5080   -3.9650 o         1 MOL     -0.659923
     46 H19         3.4280   -3.1780   -1.5230 hn        1 MOL      0.309516
     47 H20         4.0500   -4.2350   -4.1580 h1        1 MOL      0.116122
     48 H21         2.0050   -3.2440   -4.2440 hc        1 MOL      0.098294
     49 H22         3.2330   -2.2650   -5.1720 hc        1 MOL      0.098294
     50 N4          5.6180   -1.9620   -2.2480 n         1 MOL      0.035984
     51 C17         6.8010   -1.2520   -1.9690 c3        1 MOL     -0.266997
     52 C18         6.7910    0.2080   -2.3740 c         1 MOL      0.553227
     53 O9          7.8220    0.8550   -2.0990 o         1 MOL     -0.603360
     54 H23         5.0120   -2.2640   -1.4940 hn        1 MOL      0.002444
     55 H24         7.6810   -1.7290   -2.4180 h1        1 MOL      0.112471
     56 H25         6.9600   -1.2670   -0.8910 h1        1 MOL      0.112471
     57 N5          5.6850    0.8060   -2.8420 n         1 MOL     -0.408287
     58 C19         5.6560    2.2350   -3.1180 c3        1 MOL      0.020090
     59 C20         6.1610    3.1660   -2.0100 c         1 MOL      0.425327
     60 O10         6.6940    4.2460   -2.2780 o         1 MOL     -0.562522
     61 C21         4.2810    2.6580   -3.6810 c3        1 MOL     -0.395861
     62 C22         3.1740    2.4960   -2.6750 c         1 MOL      0.856499
     63 O11         3.4040    1.9450   -1.5310 o         1 MOL     -0.718401
     64 O12         2.0320    2.8700   -2.9520 o         1 MOL     -0.718401
     65 H26         4.9090    0.1620   -2.9210 hn        1 MOL      0.365093
     66 H27         6.4860    2.3560   -3.8180 h1        1 MOL      0.093079
     67 H28         3.9450    2.1570   -4.5790 hc        1 MOL      0.112711
     68 H29         4.4820    3.7180   -3.8450 hc        1 MOL      0.112711
     69 N6          6.0430    2.7180   -0.7630 n         1 MOL     -0.050246
     70 C23         6.5800    3.4800    0.4020 c3        1 MOL     -0.201955
     71 C24         5.5380    4.2970    1.1220 c         1 MOL      0.455133
     72 O13         5.7250    5.2360    1.9100 o         1 MOL     -0.590030
     73 H30         5.6770    1.7770   -0.6830 hn        1 MOL      0.194464
     74 H31         7.3450    4.2040    0.1040 h1        1 MOL      0.104139
     75 H32         7.1210    2.7480    1.0060 h1        1 MOL      0.104139
     76 N7          4.2940    3.9120    0.8800 n         1 MOL     -0.032782
     77 C25         3.0730    4.4230    1.5160 c3        1 MOL     -0.111352
     78 C26         2.1380    3.2440    1.8650 c         1 MOL      0.519307
     79 O14         2.2950    2.2210    1.2530 o         1 MOL     -0.472003
     80 C27         2.3380    5.4570    0.5790 c3        1 MOL      0.126996
     81 C28         3.1220    6.7320    0.3250 c3        1 MOL     -0.453040
     82 C29         2.2000    7.7330   -0.3760 c         1 MOL      0.721531
     83 N8          1.9900    7.6820   -1.6660 n         1 MOL     -0.841550
     84 O15         1.5200    8.5750    0.2210 o         1 MOL     -0.610701
     85 H33         4.2340    3.0940    0.2980 hn        1 MOL     -0.016328
     86 H34         3.1230    4.8920    2.4990 h1        1 MOL      0.063649
     87 H35         1.3580    5.5950    1.0330 hc        1 MOL      0.019679
     88 H36         2.1290    5.0240   -0.4050 hc        1 MOL      0.019679
     89 H37         4.0120    6.5730   -0.2770 hc        1 MOL      0.145099
     90 H38         3.4500    7.1750    1.2690 hc        1 MOL      0.145099
     91 H39         2.2800    6.8230   -2.0960 hn        1 MOL      0.385260
     92 H40         1.2760    8.2810   -2.0520 hn        1 MOL      0.385260
     93 N9          1.2830    3.4620    2.8910 n         1 MOL     -0.451784
     94 C30         0.2130    2.4700    3.1680 c3        1 MOL     -0.098194
     95 C31        -1.1210    2.9330    2.5580 c         1 MOL      0.734770
     96 O16        -1.5640    4.0670    2.7330 o         1 MOL     -0.592906
     97 C32        -0.0240    2.0950    4.6900 c3        1 MOL      0.186137
     98 C33         1.0140    1.2150    5.2690 c3        1 MOL     -0.322365
     99 C34        -0.1500    3.1790    5.6950 c3        1 MOL     -0.322365
    100 H41         1.1180    4.4050    3.2020 hn        1 MOL      0.304952
    101 H42         0.3670    1.5140    2.6720 h1        1 MOL      0.225680
    102 H43        -0.8650    1.4200    4.8280 hc        1 MOL      0.040671
    103 H44         1.9110    1.7780    5.4770 hc        1 MOL      0.072219
    104 H45         0.6320    0.8610    6.2300 hc        1 MOL      0.072219
    105 H46         1.2130    0.3960    4.5790 hc        1 MOL      0.072219
    106 H47        -0.9330    3.8670    5.3740 hc        1 MOL      0.072219
    107 H48        -0.4530    2.7390    6.6440 hc        1 MOL      0.072219
    108 H49         0.7210    3.8110    5.8430 hc        1 MOL      0.072219
    109 N10        -1.8720    2.1140    1.7870 n         1 MOL     -0.848545
    110 C35        -2.9960    2.5070    0.9640 c3        1 MOL      0.678523
    111 C36        -4.3150    1.8550    1.2080 c         1 MOL      0.193832
    112 O17        -4.3430    0.7690    1.7840 o         1 MOL     -0.308798
    113 C37        -2.5220    2.3170   -0.5190 c3        1 MOL     -0.461700
    114 C38        -2.8610    0.9540   -1.1930 c         1 MOL      0.819501
    115 N11        -1.9230    0.2790   -1.8180 n         1 MOL     -0.825140
    116 O18        -3.9530    0.4320   -1.0440 o         1 MOL     -0.714189
    117 H50        -1.4430    1.2500    1.4940 hn        1 MOL      0.304852
    118 H51        -3.1310    3.5740    1.1130 h1        1 MOL     -0.054111
    119 H52        -1.4520    2.4360   -0.6700 hc        1 MOL      0.115437
    120 H53        -3.0350    3.0050   -1.1800 hc        1 MOL      0.115437
    121 H54        -1.0400    0.7500   -1.9440 hn        1 MOL      0.391071
    122 H55        -2.1450   -0.5910   -2.2900 hn        1 MOL      0.391071
    123 N12        -5.4290    2.5080    0.8230 n         1 MOL     -0.364039
    124 C39        -6.8240    2.1920    1.2110 c3        1 MOL      0.137086
    125 C40        -7.3350    0.7700    1.0600 c         1 MOL      0.420163
    126 O19        -8.3290    0.5790    1.7750 o         1 MOL     -0.596990
    127 C41        -7.7870    3.1330    0.5190 c3        1 MOL     -0.236088
    128 C42        -8.1100    2.7360   -0.8900 ca        1 MOL      0.119446
    129 C43        -9.3360    2.0640   -1.1240 ca        1 MOL     -0.238931
    130 C44        -7.2440    3.0670   -1.9740 ca        1 MOL     -0.238931
    131 C45        -9.5860    1.6200   -2.4290 ca        1 MOL     -0.228514
    132 C46        -7.3980    2.4530   -3.1910 ca        1 MOL     -0.228514
    133 C47        -8.6470    1.7720   -3.4840 ca        1 MOL      0.242141
    134 O20        -8.8420    1.2190   -4.6930 oh        1 MOL     -0.399671
    135 H56        -5.1690    3.3330    0.3110 hn        1 MOL      0.229960
    136 H57        -6.8360    2.3800    2.2880 h1        1 MOL      0.052012
    137 H58        -7.4180    4.1540    0.5660 hc        1 MOL      0.065717
    138 H59        -8.7460    3.0390    1.0320 hc        1 MOL      0.065717
    139 H60       -10.0530    2.0060   -0.3220 ha        1 MOL      0.159918
    140 H61        -6.3350    3.6230   -1.7860 ha        1 MOL      0.159918
    141 H62       -10.5120    1.0790   -2.5930 ha        1 MOL      0.153551
    142 H63        -6.6810    2.5110   -3.9930 ha        1 MOL      0.153551
    143 H64        -9.6780    0.7500   -4.7280 ho        1 MOL      0.334465
    144 N13        -6.8120   -0.0680    0.2070 n         1 MOL      0.016736
    145 C48        -7.2010   -1.4580    0.0040 c3        1 MOL      0.001888
    146 C49        -6.0360   -2.4260    0.5160 c         1 MOL      0.478527
    147 O21        -6.3570   -3.4880    1.0430 o         1 MOL     -0.537162
    148 C50        -7.5330   -1.7770   -1.5580 c3        1 MOL     -0.100936
    149 C51        -6.3780   -1.3900   -2.4520 c3        1 MOL     -0.091010
    150 C52        -6.5080   -1.6280   -4.0520 c         1 MOL      0.738177
    151 O22        -5.6790   -1.1350   -4.8220 o         1 MOL     -0.746157
    152 O23        -7.3670   -2.4520   -4.4440 o         1 MOL     -0.746157
    153 H65        -5.9640    0.2890   -0.1940 hn        1 MOL      0.187957
    154 H66        -8.0100   -1.6590    0.7070 h1        1 MOL      0.020494
    155 H67        -8.4130   -1.2690   -1.9420 hc        1 MOL      0.008363
    156 H68        -7.6790   -2.8590   -1.5270 hc        1 MOL      0.008363
    157 H69        -5.4910   -1.8780   -2.0470 hc        1 MOL      0.022760
    158 H70        -6.2600   -0.3100   -2.3700 hc        1 MOL      0.022760
    159 N14        -4.7750   -2.0710    0.3730 n         1 MOL     -0.165858
    160 C53        -3.7340   -2.6350    1.2320 c3        1 MOL     -0.380477
    161 C54        -4.0190   -2.5280    2.7160 c         1 MOL      0.560116
    162 O24        -3.7920   -3.4890    3.4620 o         1 MOL     -0.580774
    163 C55        -2.4030   -1.9030    0.9050 c3        1 MOL      0.148737
    164 C56        -1.1610   -2.2400    1.8250 c3        1 MOL     -0.391293
    165 C57         0.0420   -1.4720    1.2730 c         1 MOL      0.930678
    166 O25         0.1430   -0.1890    1.3040 o         1 MOL     -0.820387
    167 O26         0.9630   -2.0310    0.6350 o         1 MOL     -0.820387
    168 H71        -4.5270   -1.2840   -0.2070 hn        1 MOL      0.218328
    169 H72        -3.5440   -3.6750    0.9560 h1        1 MOL      0.161496
    170 H73        -2.5620   -0.8280    0.9390 hc        1 MOL      0.033077
    171 H74        -2.1520   -2.1660   -0.1200 hc        1 MOL      0.033077
    172 H75        -1.0030   -3.3220    1.8040 hc        1 MOL      0.104507
    173 H76        -1.3260   -1.8710    2.8410 hc        1 MOL      0.104507
    174 N15        -4.7670   -1.5150    3.1110 n         1 MOL     -0.053196
    175 C58        -5.2310   -1.3150    4.4920 c3        1 MOL     -0.320188
    176 H77        -4.3900   -1.0120    5.1160 h1        1 MOL      0.110489
    177 H78        -5.9940   -0.5370    4.5110 h1        1 MOL      0.110489
    178 H79        -5.6490   -2.2460    4.8740 h1        1 MOL      0.110489
    179 H80        -4.8810   -0.7740    2.4490 hn        1 MOL      0.010669
    180 Ca1         2.4410   -0.0940   -0.0220 Ca        1 MOL      1.647252
    181 O27         3.0770   -0.3130    2.7570 oh        1 MOL     -0.845166
    182 H81         3.9060   -0.0570    3.1690 ho        1 MOL      0.412167
    183 H82         2.4860   -0.4810    3.4780 ho        1 MOL      0.412167
    184 O28         4.8820    0.3730    0.7100 oh        1 MOL     -0.845166
    185 H83         5.0300   -0.5610    0.5790 ho        1 MOL      0.412167
    186 H84         5.3280    0.5600    1.5410 ho        1 MOL      0.412167
    187 O29         0.7490    0.9240   -1.9200 oh        1 MOL     -0.845166
    188 H85         0.9680    0.2950   -2.6150 ho        1 MOL      0.412167
    189 H86         1.2560    1.7060   -2.1420 ho        1 MOL      0.412167
@<TRIPOS>BOND
     1    1    2 1   
     2    1    4 1   
     3    1    5 1   
     4    1    6 1   
     5    2    3 2   
     6    2    7 1   
     7    7    8 1   
     8    7   15 1   
     9    8    9 1   
    10    8   11 1   
    11    8   16 1   
    12    9   10 2   
    13    9   19 1   
    14   11   12 1   
    15   11   17 1   
    16   11   18 1   
    17   12   13 1   
    18   12   14 1   
    19   19   20 1   
    20   19   27 1   
    21   20   21 1   
    22   20   23 1   
    23   20   28 1   
    24   21   22 2   
    25   21   38 1   
    26   23   24 1   
    27   23   25 1   
    28   23   29 1   
    29   24   26 1   
    30   24   30 1   
    31   24   31 1   
    32   25   32 1   
    33   25   33 1   
    34   25   34 1   
    35   26   35 1   
    36   26   36 1   
    37   26   37 1   
    38   38   39 1   
    39   38   46 1   
    40   39   40 1   
    41   39   42 1   
    42   39   47 1   
    43   40   41 2   
    44   40   50 1   
    45   42   43 1   
    46   42   48 1   
    47   42   49 1   
    48   43   44 1   
    49   43   45 1   
    50   50   51 1   
    51   50   54 1   
    52   51   52 1   
    53   51   55 1   
    54   51   56 1   
    55   52   53 2   
    56   52   57 1   
    57   57   58 1   
    58   57   65 1   
    59   58   59 1   
    60   58   61 1   
    61   58   66 1   
    62   59   60 2   
    63   59   69 1   
    64   61   62 1   
    65   61   67 1   
    66   61   68 1   
    67   62   63 1   
    68   62   64 1   
    69   69   70 1   
    70   69   73 1   
    71   70   71 1   
    72   70   74 1   
    73   70   75 1   
    74   71   72 2   
    75   71   76 1   
    76   76   77 1   
    77   76   85 1   
    78   77   78 1   
    79   77   80 1   
    80   77   86 1   
    81   78   79 2   
    82   78   93 1   
    83   80   81 1   
    84   80   87 1   
    85   80   88 1   
    86   81   82 1   
    87   81   89 1   
    88   81   90 1   
    89   82   83 1   
    90   82   84 2   
    91   83   91 1   
    92   83   92 1   
    93   93   94 1   
    94   93  100 1   
    95   94   95 1   
    96   94   97 1   
    97   94  101 1   
    98   95   96 2   
    99   95  109 1   
   100   97   98 1   
   101   97   99 1   
   102   97  102 1   
   103   98  103 1   
   104   98  104 1   
   105   98  105 1   
   106   99  106 1   
   107   99  107 1   
   108   99  108 1   
   109  109  110 1   
   110  109  117 1   
   111  110  111 1   
   112  110  113 1   
   113  110  118 1   
   114  111  112 2   
   115  111  123 1   
   116  113  114 1   
   117  113  119 1   
   118  113  120 1   
   119  114  115 1   
   120  114  116 2   
   121  115  121 1   
   122  115  122 1   
   123  123  124 1   
   124  123  135 1   
   125  124  125 1   
   126  124  127 1   
   127  124  136 1   
   128  125  126 2   
   129  125  144 1   
   130  127  128 1   
   131  127  137 1   
   132  127  138 1   
   133  128  129 ar  
   134  128  130 ar  
   135  129  131 ar  
   136  129  139 1   
   137  130  132 ar  
   138  130  140 1   
   139  131  133 ar  
   140  131  141 1   
   141  132  133 ar  
   142  132  142 1   
   143  133  134 1   
   144  134  143 1   
   145  144  145 1   
   146  144  153 1   
   147  145  146 1   
   148  145  148 1   
   149  145  154 1   
   150  146  147 2   
   151  146  159 1   
   152  148  149 1   
   153  148  155 1   
   154  148  156 1   
   155  149  150 1   
   156  149  157 1   
   157  149  158 1   
   158  150  151 1   
   159  150  152 1   
   160  159  160 1   
   161  159  168 1   
   162  160  161 1   
   163  160  163 1   
   164  160  169 1   
   165  161  162 2   
   166  161  174 1   
   167  163  164 1   
   168  163  170 1   
   169  163  171 1   
   170  164  165 1   
   171  164  172 1   
   172  164  173 1   
   173  165  166 1   
   174  165  167 1   
   175  174  175 1   
   176  174  179 1   
   177  175  176 1   
   178  175  177 1   
   179  175  178 1   
   180  181  182 1   
   181  181  183 1   
   182  184  185 1   
   183  184  186 1   
   184  187  188 1   
   185  187  189 1   
@<TRIPOS>SUBSTRUCTURE
     1 MOL         1 TEMP              0 ****  ****    0 ROOT
