@<TRIPOS>MOLECULE
MOL
  189   185     1     0     0
SMALL
resp


@<TRIPOS>ATOM
      1 C1         -0.5970    1.8520    6.6630 c3        1 MOL     -0.334350
      2 C2         -0.9160    1.7000    5.1330 c         1 MOL      0.720476
      3 O1         -0.0620    2.0080    4.3090 o         1 MOL     -0.630317
      4 H1         -0.0980    2.8050    6.8360 hc        1 MOL      0.083115
      5 H2         -1.5260    1.8200    7.2320 hc        1 MOL      0.083115
      6 H3          0.0540    1.0370    6.9810 hc        1 MOL      0.083115
      7 N1         -2.0220    1.1500    4.7470 n         1 MOL     -0.629988
      8 C3         -2.4250    1.2680    3.3250 c3        1 MOL      0.120856
      9 C4         -2.7610    2.6840    2.8420 c         1 MOL      0.630753
     10 O2         -3.5990    3.4130    3.4800 o         1 MOL     -0.562363
     11 C5         -3.6800    0.3800    3.1160 c3        1 MOL     -0.290661
     12 C6         -4.1650    0.2670    1.6380 c         1 MOL      0.921359
     13 O3         -3.4470    0.7220    0.7300 o         1 MOL     -0.717292
     14 O4         -5.2710   -0.2170    1.4090 o         1 MOL     -0.717292
     15 H4         -2.6390    0.8180    5.4740 hn        1 MOL      0.353784
     16 H5         -1.6290    0.8630    2.7070 h1        1 MOL      0.021629
     17 H6         -4.5350    0.9800    3.4310 hc        1 MOL      0.050645
     18 H7         -3.6570   -0.6150    3.5740 hc        1 MOL      0.050645
     19 N2         -1.9810    3.1650    1.8090 n         1 MOL     -0.272109
     20 C7         -1.8580    4.5880    1.4370 c3        1 MOL     -0.093962
     21 C8         -2.9780    5.1040    0.5430 c         1 MOL      0.656751
     22 O5         -3.2870    6.3290    0.5660 o         1 MOL     -0.571792
     23 C9         -0.4710    4.9620    0.8330 c3        1 MOL      0.045915
     24 C10        -0.1070    6.4400    0.9640 c3        1 MOL     -0.144338
     25 C11         1.1920    6.7170    0.1490 c3        1 MOL      0.085229
     26 C12         1.8010    8.1580    0.3140 c3        1 MOL      0.121027
     27 N3          3.0730    8.2880   -0.4530 n4        1 MOL     -0.481498
     28 H8         -1.3690    2.4830    1.3690 hn        1 MOL      0.190427
     29 H9         -2.0340    5.1740    2.3460 h1        1 MOL      0.055032
     30 H10        -0.3400    4.6850   -0.2210 hc        1 MOL      0.047057
     31 H11         0.2040    4.3710    1.4540 hc        1 MOL      0.047057
     32 H12         0.1520    6.7300    1.9910 hc        1 MOL      0.057875
     33 H13        -0.9460    7.0460    0.6590 hc        1 MOL      0.057875
     34 H14         1.0220    6.5970   -0.9190 hc        1 MOL     -0.017192
     35 H15         1.8980    5.9350    0.4320 hc        1 MOL     -0.017192
     36 H16         1.8210    8.3820    1.3820 hx        1 MOL      0.059040
     37 H17         1.0580    8.8220   -0.1330 hx        1 MOL      0.059040
     38 H18         3.5050    9.1910   -0.3940 hn        1 MOL      0.356481
     39 H19         3.8220    7.7320   -0.0630 hn        1 MOL      0.356481
     40 H20         2.8740    8.0960   -1.4260 hn        1 MOL      0.356481
     41 N4         -3.5540    4.1730   -0.2350 n         1 MOL     -0.636956
     42 C13        -4.4070    4.4910   -1.4280 c3        1 MOL      0.134120
     43 C14        -5.6030    3.4290   -1.5280 c         1 MOL      0.440695
     44 O6         -6.4370    3.5430   -2.4500 o         1 MOL     -0.532168
     45 C15        -3.4850    4.3300   -2.7080 c3        1 MOL     -0.253482
     46 C16        -2.5080    3.0900   -2.6490 c         1 MOL      1.005875
     47 O7         -2.8450    2.0270   -2.1130 o         1 MOL     -0.835113
     48 O8         -1.3430    3.1930   -3.1150 o         1 MOL     -0.835113
     49 H21        -3.1770    3.2300   -0.1950 hn        1 MOL      0.312444
     50 H22        -4.9770    5.4170   -1.3840 h1        1 MOL      0.074558
     51 H23        -2.8770    5.2310   -2.7710 hc        1 MOL      0.048176
     52 H24        -3.9910    4.2580   -3.6760 hc        1 MOL      0.048176
     53 N5         -5.7570    2.4810   -0.6050 n         1 MOL      0.009929
     54 C17        -7.0170    1.7360   -0.4030 c3        1 MOL     -0.410753
     55 C18        -7.2160    0.5830   -1.4050 c         1 MOL      0.653584
     56 O9         -7.7520    0.6850   -2.5500 o         1 MOL     -0.553686
     57 H25        -5.0300    2.2670    0.0680 hn        1 MOL      0.092249
     58 H26        -7.8180    2.4530   -0.5660 h1        1 MOL      0.134319
     59 H27        -7.0220    1.3590    0.6130 h1        1 MOL      0.134319
     60 N6         -6.6310   -0.5710   -1.0960 n         1 MOL     -0.459533
     61 C19        -6.6460   -1.8520   -1.8810 c3        1 MOL      0.064830
     62 C20        -6.6070   -3.0520   -0.8950 c         1 MOL      0.398130
     63 O10        -6.7470   -4.1110   -1.5030 o         1 MOL     -0.506323
     64 C21        -5.5480   -1.9700   -2.9310 c3        1 MOL      0.006960
     65 C22        -4.2570   -1.5090   -2.4380 c         1 MOL      0.740049
     66 O11        -3.5500   -0.6490   -3.0820 o         1 MOL     -0.735667
     67 O12        -3.7810   -2.0410   -1.4190 o         1 MOL     -0.735667
     68 H28        -6.2170   -0.5230   -0.1710 hn        1 MOL      0.176993
     69 H29        -7.6300   -1.8210   -2.3520 h1        1 MOL      0.058753
     70 H30        -5.8080   -1.3470   -3.7890 hc        1 MOL      0.012539
     71 H31        -5.4460   -2.9560   -3.3850 hc        1 MOL      0.012539
     72 N7         -6.4100   -2.8350    0.3990 n         1 MOL     -0.240345
     73 C23        -6.2560   -3.8710    1.4000 c3        1 MOL     -0.285422
     74 C24        -4.9930   -4.6600    1.2570 c         1 MOL      0.633016
     75 O13        -4.9940   -5.8010    1.7110 o         1 MOL     -0.595780
     76 H32        -6.3180   -1.8890    0.7340 hn        1 MOL      0.286317
     77 H33        -7.0220   -4.6080    1.1810 h1        1 MOL      0.133728
     78 H34        -6.3850   -3.4350    2.3910 h1        1 MOL      0.133728
     79 N8         -3.9600   -4.1300    0.6310 n         1 MOL     -0.318361
     80 C25        -2.5770   -4.7610    0.4910 c3        1 MOL     -0.216377
     81 C26        -1.4700   -3.7490    0.6700 c         1 MOL      0.821509
     82 O14        -1.7490   -2.5400    0.4280 o         1 MOL     -0.785327
     83 C27        -2.4610   -5.4830   -0.8540 c3        1 MOL      0.482196
     84 C28        -3.1640   -6.7970   -0.6710 c3        1 MOL     -0.275591
     85 O15        -2.9800   -4.6310   -1.8960 oh        1 MOL     -0.677301
     86 H35        -4.1630   -3.2770    0.1240 hn        1 MOL      0.223173
     87 H36        -2.3970   -5.4520    1.3220 h1        1 MOL      0.086968
     88 H37        -1.4050   -5.6450   -1.1060 h1        1 MOL     -0.045448
     89 H38        -3.3610   -3.8000   -1.5930 ho        1 MOL      0.450832
     90 H39        -4.2280   -6.7300   -0.9060 hc        1 MOL      0.070247
     91 H40        -2.7030   -7.6070   -1.2280 hc        1 MOL      0.070247
     92 H41        -3.0060   -7.2200    0.3150 hc        1 MOL      0.070247
     93 N9         -0.2790   -4.1950    0.9650 n         1 MOL     -0.595863
     94 C29         0.8630   -3.3990    1.2970 c3        1 MOL      0.323010
     95 C30         1.9860   -3.7360    0.3300 c         1 MOL      0.312738
     96 O16         2.2430   -4.9200    0.1270 o         1 MOL     -0.529199
     97 C31         1.2270   -3.7560    2.7850 c3        1 MOL      0.051648
     98 C32         0.3020   -3.2700    3.9420 c3        1 MOL     -0.143822
     99 C33         2.5860   -3.2410    3.1110 c3        1 MOL     -0.159388
    100 C34        -0.0680   -1.8130    4.0340 c3        1 MOL     -0.079946
    101 H42        -0.1820   -5.1880    1.1180 hn        1 MOL      0.276397
    102 H43         0.6180   -2.3350    1.2340 h1        1 MOL      0.062988
    103 H44         1.3260   -4.8380    2.8290 hc        1 MOL      0.014457
    104 H45         0.7810   -3.6560    4.8460 hc        1 MOL      0.041235
    105 H46        -0.6220   -3.8200    3.7700 hc        1 MOL      0.041235
    106 H47         2.6810   -2.1940    3.4110 hc        1 MOL      0.021645
    107 H48         2.8810   -3.7340    4.0310 hc        1 MOL      0.021645
    108 H49         3.3640   -3.4260    2.3770 hc        1 MOL      0.021645
    109 H50        -0.5150   -1.7540    5.0240 hc        1 MOL      0.055401
    110 H51         0.8000   -1.1560    4.1630 hc        1 MOL      0.055401
    111 H52        -0.7190   -1.5170    3.2150 hc        1 MOL      0.055401
    112 N10         2.5320   -2.7350   -0.3500 n         1 MOL     -0.077546
    113 C35         3.6460   -2.7960   -1.2670 c3        1 MOL      0.064918
    114 C36         4.9510   -2.5090   -0.5410 c         1 MOL      0.257150
    115 O17         5.0810   -2.1300    0.6140 o         1 MOL     -0.181969
    116 C37         3.3800   -1.7290   -2.3840 c3        1 MOL      0.087924
    117 C38         2.2160   -2.0990   -3.2190 c3        1 MOL     -0.333576
    118 O18         3.2290   -0.4850   -1.8200 oh        1 MOL     -0.480162
    119 H53         2.0400   -1.8520   -0.3580 hn        1 MOL      0.081401
    120 H54         3.6980   -3.7520   -1.7900 h1        1 MOL      0.063554
    121 H55         4.3240   -1.7400   -2.9300 h1        1 MOL      0.031185
    122 H56         2.3570   -0.3760   -1.4490 ho        1 MOL      0.290665
    123 H57         1.3040   -2.0510   -2.6160 hc        1 MOL      0.099565
    124 H58         2.1180   -1.2520   -3.8940 hc        1 MOL      0.099565
    125 H59         2.3630   -3.0680   -3.7030 hc        1 MOL      0.099565
    126 N11         6.0670   -2.7250   -1.2830 n         1 MOL     -0.373012
    127 C39         7.3950   -2.2020   -0.8770 c3        1 MOL     -0.101085
    128 C40         7.4860   -0.7930   -0.3280 c         1 MOL      0.406750
    129 O19         7.9410   -0.5990    0.7720 o         1 MOL     -0.485612
    130 C41         8.4250   -2.3540   -1.9550 c3        1 MOL      0.186935
    131 C42         8.7000   -3.8200   -2.2620 c3        1 MOL     -0.286438
    132 O20         7.9620   -1.8530   -3.1230 oh        1 MOL     -0.619916
    133 H60         5.9700   -3.2540   -2.1360 hn        1 MOL      0.321365
    134 H61         7.8140   -2.8060   -0.0650 h1        1 MOL      0.126366
    135 H62         9.3900   -1.8720   -1.7970 h1        1 MOL      0.079386
    136 H63         8.7010   -1.8530   -3.7350 ho        1 MOL      0.414099
    137 H64         9.0780   -4.4200   -1.4410 hc        1 MOL      0.084660
    138 H65         7.8070   -4.2350   -2.7310 hc        1 MOL      0.084660
    139 H66         9.5290   -3.9630   -2.9550 hc        1 MOL      0.084660
    140 N12         6.8590    0.1160   -1.0430 n         1 MOL     -0.188140
    141 C43         6.8530    1.4930   -0.6690 c3        1 MOL     -0.092955
    142 C44         6.0260    1.8010    0.5770 c         1 MOL      0.303093
    143 O21         6.4010    2.8550    1.1630 o         1 MOL     -0.507819
    144 C45         6.3460    2.3700   -1.8860 c3        1 MOL     -0.258704
    145 C46         4.9780    2.0370   -2.5180 c3        1 MOL      0.334029
    146 C47         4.8340    2.8830   -3.8210 c3        1 MOL     -0.157453
    147 C48         3.4590    2.4280   -4.3970 c3        1 MOL      0.071207
    148 N13         3.4390    1.3860   -5.4950 n4        1 MOL     -0.459028
    149 H67         6.4060   -0.2150   -1.8850 hn        1 MOL      0.145423
    150 H68         7.8560    1.8550   -0.4860 h1        1 MOL      0.162875
    151 H69         7.1050    2.2170   -2.6560 hc        1 MOL      0.066575
    152 H70         6.4140    3.4390   -1.7130 hc        1 MOL      0.066575
    153 H71         4.2320    2.3260   -1.7850 hc        1 MOL     -0.039702
    154 H72         5.0230    0.9810   -2.8090 hc        1 MOL     -0.039702
    155 H73         5.6770    2.6380   -4.4710 hc        1 MOL      0.057080
    156 H74         4.8550    3.9080   -3.4540 hc        1 MOL      0.057080
    157 H75         2.9980    3.3090   -4.8330 hx        1 MOL      0.073329
    158 H76         2.7950    2.1410   -3.5840 hx        1 MOL      0.073329
    159 H77         2.4850    1.3160   -5.8250 hn        1 MOL      0.350524
    160 H78         4.0070    1.6190   -6.2890 hn        1 MOL      0.350524
    161 H79         3.8290    0.4980   -5.2070 hn        1 MOL      0.350524
    162 N14         5.0220    0.9850    0.9320 n         1 MOL     -0.057830
    163 C49         4.2670    1.0200    2.2070 c3        1 MOL     -0.183478
    164 C50         5.0110    0.2470    3.3250 c         1 MOL      0.511317
    165 O22         5.1140    0.6490    4.5080 o         1 MOL     -0.533859
    166 C51         2.8160    0.5490    1.9350 c3        1 MOL      0.161691
    167 C52         2.0640    1.3080    0.8490 c3        1 MOL     -0.195240
    168 C53         0.7940    0.5840    0.2840 c         1 MOL      0.600638
    169 O23         0.8090   -0.4760   -0.4120 o         1 MOL     -0.652718
    170 O24        -0.2590    1.1710    0.6020 o         1 MOL     -0.652718
    171 H80         4.9000    0.1420    0.3940 hn        1 MOL      0.259430
    172 H81         4.3250    2.0480    2.5760 h1        1 MOL      0.102289
    173 H82         2.2570    0.4950    2.8720 hc        1 MOL      0.026639
    174 H83         2.8810   -0.4940    1.5990 hc        1 MOL      0.026639
    175 H84         2.6700    1.6100   -0.0010 hc        1 MOL      0.033628
    176 H85         1.7800    2.2720    1.2820 hc        1 MOL      0.033628
    177 N15         5.7720   -0.8680    2.9690 n         1 MOL     -0.109635
    178 C54         6.5930   -1.6670    3.9650 c3        1 MOL     -0.494473
    179 H86         6.0030   -1.8420    4.8640 h1        1 MOL      0.170867
    180 H87         6.8720   -2.6230    3.5220 h1        1 MOL      0.170867
    181 H88         7.4930   -1.1100    4.2240 h1        1 MOL      0.170867
    182 H89         5.6110   -1.3100    2.0850 hn        1 MOL      0.053266
    183 Ca1        -1.7090   -0.2020   -1.1230 Ca        1 MOL      1.800226
    184 O25        -1.0900   -2.5120   -2.4970 oh        1 MOL     -0.837987
    185 H90        -1.1750   -3.3710   -2.0980 ho        1 MOL      0.391410
    186 H91        -1.2240   -2.6630   -3.4310 ho        1 MOL      0.391410
    187 O26        -0.3280    0.8870   -3.0070 oh        1 MOL     -0.837987
    188 H92         0.1400    0.7120   -3.8240 ho        1 MOL      0.391410
    189 H93        -0.5890    1.8100   -3.0750 ho        1 MOL      0.391410
@<TRIPOS>BOND
     1    1    2 1   
     2    1    4 1   
     3    1    5 1   
     4    1    6 1   
     5    2    3 2   
     6    2    7 1   
     7    7    8 1   
     8    7   15 1   
     9    8    9 1   
    10    8   11 1   
    11    8   16 1   
    12    9   10 2   
    13    9   19 1   
    14   11   12 1   
    15   11   17 1   
    16   11   18 1   
    17   12   13 1   
    18   12   14 1   
    19   19   20 1   
    20   19   28 1   
    21   20   21 1   
    22   20   23 1   
    23   20   29 1   
    24   21   22 2   
    25   21   41 1   
    26   23   24 1   
    27   23   30 1   
    28   23   31 1   
    29   24   25 1   
    30   24   32 1   
    31   24   33 1   
    32   25   26 1   
    33   25   34 1   
    34   25   35 1   
    35   26   27 1   
    36   26   36 1   
    37   26   37 1   
    38   27   38 1   
    39   27   39 1   
    40   27   40 1   
    41   41   42 1   
    42   41   49 1   
    43   42   43 1   
    44   42   45 1   
    45   42   50 1   
    46   43   44 2   
    47   43   53 1   
    48   45   46 1   
    49   45   51 1   
    50   45   52 1   
    51   46   47 1   
    52   46   48 1   
    53   53   54 1   
    54   53   57 1   
    55   54   55 1   
    56   54   58 1   
    57   54   59 1   
    58   55   56 2   
    59   55   60 1   
    60   60   61 1   
    61   60   68 1   
    62   61   62 1   
    63   61   64 1   
    64   61   69 1   
    65   62   63 2   
    66   62   72 1   
    67   64   65 1   
    68   64   70 1   
    69   64   71 1   
    70   65   66 1   
    71   65   67 1   
    72   72   73 1   
    73   72   76 1   
    74   73   74 1   
    75   73   77 1   
    76   73   78 1   
    77   74   75 2   
    78   74   79 1   
    79   79   80 1   
    80   79   86 1   
    81   80   81 1   
    82   80   83 1   
    83   80   87 1   
    84   81   82 2   
    85   81   93 1   
    86   83   84 1   
    87   83   85 1   
    88   83   88 1   
    89   84   90 1   
    90   84   91 1   
    91   84   92 1   
    92   85   89 1   
    93   93   94 1   
    94   93  101 1   
    95   94   95 1   
    96   94   97 1   
    97   94  102 1   
    98   95   96 2   
    99   95  112 1   
   100   97   98 1   
   101   97   99 1   
   102   97  103 1   
   103   98  100 1   
   104   98  104 1   
   105   98  105 1   
   106   99  106 1   
   107   99  107 1   
   108   99  108 1   
   109  100  109 1   
   110  100  110 1   
   111  100  111 1   
   112  112  113 1   
   113  112  119 1   
   114  113  114 1   
   115  113  116 1   
   116  113  120 1   
   117  114  115 2   
   118  114  126 1   
   119  116  117 1   
   120  116  118 1   
   121  116  121 1   
   122  117  123 1   
   123  117  124 1   
   124  117  125 1   
   125  118  122 1   
   126  126  127 1   
   127  126  133 1   
   128  127  128 1   
   129  127  130 1   
   130  127  134 1   
   131  128  129 2   
   132  128  140 1   
   133  130  131 1   
   134  130  132 1   
   135  130  135 1   
   136  131  137 1   
   137  131  138 1   
   138  131  139 1   
   139  132  136 1   
   140  140  141 1   
   141  140  149 1   
   142  141  142 1   
   143  141  144 1   
   144  141  150 1   
   145  142  143 2   
   146  142  162 1   
   147  144  145 1   
   148  144  151 1   
   149  144  152 1   
   150  145  146 1   
   151  145  153 1   
   152  145  154 1   
   153  146  147 1   
   154  146  155 1   
   155  146  156 1   
   156  147  148 1   
   157  147  157 1   
   158  147  158 1   
   159  148  159 1   
   160  148  160 1   
   161  148  161 1   
   162  162  163 1   
   163  162  171 1   
   164  163  164 1   
   165  163  166 1   
   166  163  172 1   
   167  164  165 2   
   168  164  177 1   
   169  166  167 1   
   170  166  173 1   
   171  166  174 1   
   172  167  168 1   
   173  167  175 1   
   174  167  176 1   
   175  168  169 1   
   176  168  170 1   
   177  177  178 1   
   178  177  182 1   
   179  178  179 1   
   180  178  180 1   
   181  178  181 1   
   182  184  185 1   
   183  184  186 1   
   184  187  188 1   
   185  187  189 1   
@<TRIPOS>SUBSTRUCTURE
     1 MOL         1 TEMP              0 ****  ****    0 ROOT
