@<TRIPOS>MOLECULE
MOL
  189   185     1     0     0
SMALL
resp


@<TRIPOS>ATOM
      1 C1         -0.7980    1.5310    6.5840 c3        1 MOL     -0.293698
      2 C2         -0.8990    1.4630    5.0760 c         1 MOL      0.833667
      3 O1          0.1060    1.7880    4.4250 o         1 MOL     -0.648596
      4 H1         -1.3460    0.6960    7.0230 hc        1 MOL      0.066628
      5 H2          0.2490    1.4740    6.8820 hc        1 MOL      0.066628
      6 H3         -1.2250    2.4700    6.9360 hc        1 MOL      0.066628
      7 N1         -2.0360    0.9790    4.5490 n         1 MOL     -0.666865
      8 C3         -2.3520    1.1280    3.1100 c3        1 MOL      0.052213
      9 C4         -2.4050    2.6520    2.8190 c         1 MOL      0.530031
     10 O2         -3.0710    3.4040    3.5690 o         1 MOL     -0.556061
     11 C5         -3.6570    0.4180    2.8390 c3        1 MOL     -0.064979
     12 C6         -4.1650    0.6730    1.3600 c         1 MOL      0.571260
     13 O3         -5.3990    0.4200    1.1980 o         1 MOL     -0.577900
     14 O4         -3.3590    1.0780    0.4360 o         1 MOL     -0.577900
     15 H4         -2.7660    0.6030    5.1300 hn        1 MOL      0.352032
     16 H5         -1.5890    0.7070    2.4590 h1        1 MOL      0.049723
     17 H6         -4.4470    0.7610    3.5000 hc        1 MOL      0.019778
     18 H7         -3.6540   -0.6710    2.9020 hc        1 MOL      0.019778
     19 N2         -1.5800    3.1360    1.8530 n         1 MOL     -0.152564
     20 C7         -1.2850    4.5700    1.5470 c3        1 MOL     -0.448358
     21 C8         -2.3280    5.1210    0.5580 c         1 MOL      0.743992
     22 O5         -2.4050    6.3390    0.4690 o         1 MOL     -0.584870
     23 C9          0.2030    4.4920    1.0480 c3        1 MOL      0.254333
     24 C10         0.8280    5.8580    0.9290 c3        1 MOL      0.058882
     25 C11         2.2950    5.8840    0.3470 c3        1 MOL     -0.334200
     26 C12         2.5640    7.3410   -0.2220 c3        1 MOL      0.154017
     27 N3          3.9910    7.5620   -0.3470 n4        1 MOL     -0.284987
     28 H8         -1.1220    2.4530    1.2700 hn        1 MOL      0.127207
     29 H9         -1.3670    5.0360    2.5290 h1        1 MOL      0.179466
     30 H10         0.2360    4.0160    0.0600 hc        1 MOL      0.009004
     31 H11         0.8680    3.9180    1.6960 hc        1 MOL      0.009004
     32 H12         0.7170    6.3180    1.9080 hc        1 MOL     -0.001258
     33 H13         0.1510    6.4280    0.3000 hc        1 MOL     -0.001258
     34 H14         2.5140    5.1990   -0.4710 hc        1 MOL      0.106794
     35 H15         2.9530    5.7440    1.2050 hc        1 MOL      0.106794
     36 H16         2.2840    8.1680    0.4310 hx        1 MOL      0.067987
     37 H17         2.1110    7.4500   -1.2040 hx        1 MOL      0.067987
     38 H18         4.4150    6.8050   -0.8580 hn        1 MOL      0.297572
     39 H19         4.2190    8.5010   -0.6530 hn        1 MOL      0.297572
     40 H20         4.3490    7.3450    0.5760 hn        1 MOL      0.297572
     41 N4         -3.1530    4.2970   -0.0400 n         1 MOL     -0.473091
     42 C13        -4.0150    4.6850   -1.2480 c3        1 MOL     -0.151228
     43 C14        -5.2660    3.7730   -1.5520 c         1 MOL      0.531232
     44 O6         -5.8190    3.7890   -2.6630 o         1 MOL     -0.513185
     45 C15        -3.1310    4.6680   -2.4860 c3        1 MOL     -0.117017
     46 C16        -2.3780    3.3450   -2.5630 c         1 MOL      0.879794
     47 O7         -1.3760    3.3790   -3.3110 o         1 MOL     -0.745437
     48 O8         -2.8110    2.2720   -2.1170 o         1 MOL     -0.745437
     49 H21        -3.0210    3.3020    0.0840 hn        1 MOL      0.234016
     50 H22        -4.4440    5.6700   -1.0890 h1        1 MOL      0.130530
     51 H23        -2.3770    5.4450   -2.4440 hc        1 MOL      0.033524
     52 H24        -3.6220    4.8500   -3.4450 hc        1 MOL      0.033524
     53 N5         -5.7660    3.1790   -0.5450 n         1 MOL     -0.281418
     54 C17        -7.0360    2.5070   -0.3850 c3        1 MOL     -0.062073
     55 C18        -7.4440    1.4780   -1.4960 c         1 MOL      0.468547
     56 O9         -8.4500    1.7340   -2.1150 o         1 MOL     -0.535937
     57 H25        -5.1660    3.0520    0.2580 hn        1 MOL      0.243868
     58 H26        -7.7550    3.3140   -0.4320 h1        1 MOL      0.056299
     59 H27        -7.1500    2.0060    0.5780 h1        1 MOL      0.056299
     60 N6         -6.6500    0.4200   -1.5860 n         1 MOL     -0.146171
     61 C19        -6.9490   -0.8950   -2.2480 c3        1 MOL     -0.116323
     62 C20        -7.2130   -2.0570   -1.3390 c         1 MOL      0.410843
     63 O10        -7.4760   -3.1930   -1.8210 o         1 MOL     -0.545685
     64 C21        -5.8980   -1.2140   -3.3550 c3        1 MOL     -0.072051
     65 C22        -4.5430   -0.9590   -2.7280 c         1 MOL      0.650607
     66 O11        -3.7390   -0.2470   -3.3620 o         1 MOL     -0.658368
     67 O12        -4.1970   -1.4260   -1.6270 o         1 MOL     -0.658368
     68 H28        -5.8740    0.4830   -0.9400 hn        1 MOL      0.120027
     69 H29        -7.8750   -0.7590   -2.8190 h1        1 MOL      0.122172
     70 H30        -6.0510   -0.5320   -4.1860 hc        1 MOL      0.047571
     71 H31        -5.8850   -2.2140   -3.7980 hc        1 MOL      0.047571
     72 N7         -7.0530   -1.8890   -0.0680 n         1 MOL     -0.191334
     73 C23        -7.1910   -2.9490    0.9120 c3        1 MOL     -0.289101
     74 C24        -5.9390   -3.8150    0.8840 c         1 MOL      0.513305
     75 O13        -5.8870   -4.8890    1.4780 o         1 MOL     -0.569938
     76 H32        -6.5430   -1.0680    0.2370 hn        1 MOL      0.173081
     77 H33        -7.9850   -3.5640    0.4870 h1        1 MOL      0.149687
     78 H34        -7.4580   -2.4560    1.8490 h1        1 MOL      0.149687
     79 N8         -4.8600   -3.3360    0.3050 n         1 MOL     -0.040103
     80 C25        -3.6570   -4.1490    0.2570 c3        1 MOL     -0.312623
     81 C26        -2.3690   -3.2910    0.4180 c         1 MOL      0.621635
     82 O14        -2.3900   -2.0400    0.3180 o         1 MOL     -0.679591
     83 C27        -3.5440   -4.9830   -1.0790 c3        1 MOL      0.395210
     84 C28        -4.7410   -5.9530   -1.1310 c3        1 MOL     -0.473953
     85 O15        -3.6130   -4.2070   -2.2760 oh        1 MOL     -0.584019
     86 H35        -4.8700   -2.3730   -0.0220 hn        1 MOL      0.203492
     87 H36        -3.6590   -4.7270    1.1830 h1        1 MOL      0.124831
     88 H37        -2.6420   -5.5830   -1.1160 h1        1 MOL      0.024544
     89 H38        -4.0940   -3.4230   -2.0300 ho        1 MOL      0.406186
     90 H39        -4.4170   -6.7050   -1.8530 hc        1 MOL      0.123937
     91 H40        -4.9320   -6.4690   -0.1870 hc        1 MOL      0.123937
     92 H41        -5.5800   -5.3550   -1.4700 hc        1 MOL      0.123937
     93 N9         -1.2290   -4.0000    0.7370 n         1 MOL     -0.589785
     94 C29         0.0440   -3.4820    1.1790 c3        1 MOL      0.016070
     95 C30         1.1850   -4.0870    0.3260 c         1 MOL      0.482527
     96 O16         1.3520   -5.2760    0.1140 o         1 MOL     -0.564080
     97 C31         0.1580   -3.5970    2.7130 c3        1 MOL      0.191444
     98 C32        -0.9790   -2.8000    3.4720 c3        1 MOL      0.099411
     99 C33         1.5400   -2.9890    3.2140 c3        1 MOL     -0.354910
    100 C34        -0.9740   -2.7740    4.9980 c3        1 MOL     -0.074143
    101 H42        -1.4100   -4.9790    0.8830 hn        1 MOL      0.294338
    102 H43         0.0930   -2.4130    0.9670 h1        1 MOL      0.173442
    103 H44         0.1870   -4.6190    3.0670 hc        1 MOL     -0.011805
    104 H45        -1.8770   -3.3580    3.2340 hc        1 MOL      0.005954
    105 H46        -0.9510   -1.7840    3.0820 hc        1 MOL      0.005954
    106 H47         2.3400   -3.4160    2.6070 hc        1 MOL      0.061492
    107 H48         1.4850   -1.9220    3.0120 hc        1 MOL      0.061492
    108 H49         1.6340   -3.1980    4.2730 hc        1 MOL      0.061492
    109 H50        -1.8450   -2.2110    5.3580 hc        1 MOL      0.009862
    110 H51        -1.0410   -3.7700    5.4260 hc        1 MOL      0.009862
    111 H52        -0.1260   -2.2190    5.4120 hc        1 MOL      0.009862
    112 N10         2.0760   -3.2390   -0.2370 n         1 MOL      0.020334
    113 C35         3.3140   -3.4170   -1.0620 c3        1 MOL     -0.340479
    114 C36         4.5730   -2.8330   -0.4340 c         1 MOL      0.555414
    115 O17         4.4790   -2.0800    0.5130 o         1 MOL     -0.405782
    116 C37         2.9580   -2.8560   -2.5080 c3        1 MOL      0.448131
    117 C38         1.8610   -3.5340   -3.2200 c3        1 MOL     -0.292620
    118 O18         2.6490   -1.5240   -2.5590 oh        1 MOL     -0.743955
    119 H53         1.8010   -2.2690   -0.1360 hn        1 MOL     -0.018421
    120 H54         3.4930   -4.4720   -1.2510 h1        1 MOL      0.124529
    121 H55         3.7990   -2.9830   -3.1850 h1        1 MOL     -0.046480
    122 H56         2.0470   -1.2160   -1.8730 ho        1 MOL      0.489413
    123 H57         2.1380   -4.5680   -3.4080 hc        1 MOL      0.076409
    124 H58         0.9450   -3.3840   -2.6490 hc        1 MOL      0.076409
    125 H59         1.6220   -3.1150   -4.1940 hc        1 MOL      0.076409
    126 N11         5.7480   -3.1900   -0.9380 n         1 MOL     -0.311080
    127 C39         7.0590   -2.9740   -0.3080 c3        1 MOL     -0.233748
    128 C40         7.3090   -1.5250    0.1910 c         1 MOL      0.398633
    129 O19         7.6720   -1.4010    1.3770 o         1 MOL     -0.473418
    130 C41         8.2640   -3.4160   -1.1090 c3        1 MOL      0.306826
    131 C42         8.4390   -4.9460   -1.2500 c3        1 MOL     -0.479790
    132 O20         8.2210   -2.9140   -2.4090 oh        1 MOL     -0.592683
    133 H60         5.7460   -3.7980   -1.7500 hn        1 MOL      0.228811
    134 H61         7.0500   -3.4840    0.6540 h1        1 MOL      0.169211
    135 H62         9.1300   -2.9100   -0.6770 h1        1 MOL      0.110234
    136 H63         7.4100   -3.2580   -2.8010 ho        1 MOL      0.365607
    137 H64         7.5790   -5.3850   -1.7560 hc        1 MOL      0.140630
    138 H65         9.3550   -5.0960   -1.8210 hc        1 MOL      0.140630
    139 H66         8.5010   -5.4120   -0.2680 hc        1 MOL      0.140630
    140 N12         7.0220   -0.4660   -0.5680 n         1 MOL     -0.389764
    141 C43         7.1780    0.9430   -0.0630 c3        1 MOL     -0.070349
    142 C44         6.2230    1.2570    1.1040 c         1 MOL      0.491596
    143 O21         6.7880    1.7870    2.0640 o         1 MOL     -0.519122
    144 C45         7.0100    1.9410   -1.2190 c3        1 MOL     -0.005500
    145 C46         8.1530    1.9080   -2.1910 c3        1 MOL      0.278125
    146 C47         7.9010    3.0200   -3.1640 c3        1 MOL     -0.314776
    147 C48         8.8810    2.9860   -4.3230 c3        1 MOL      0.071873
    148 N13         9.0900    1.8160   -5.1050 n4        1 MOL     -0.405547
    149 H67         6.5830   -0.5750   -1.4680 hn        1 MOL      0.261363
    150 H68         8.1710    1.0150    0.3620 h1        1 MOL      0.129866
    151 H69         6.9030    2.9720   -0.9040 hc        1 MOL      0.004743
    152 H70         6.0880    1.6530   -1.7180 hc        1 MOL      0.004743
    153 H71         8.1560    0.9640   -2.7300 hc        1 MOL     -0.041836
    154 H72         9.0460    2.0810   -1.5950 hc        1 MOL     -0.041836
    155 H73         8.0880    3.8950   -2.5520 hc        1 MOL      0.109130
    156 H74         6.8890    2.9720   -3.5590 hc        1 MOL      0.109130
    157 H75         9.8210    3.1750   -3.8120 hx        1 MOL      0.080433
    158 H76         8.8240    3.9150   -4.8900 hx        1 MOL      0.080433
    159 H77         9.5450    1.0850   -4.5930 hn        1 MOL      0.323086
    160 H78         8.1550    1.4960   -5.3450 hn        1 MOL      0.323086
    161 H79         9.5270    2.0800   -5.9770 hn        1 MOL      0.323086
    162 N14         4.9820    0.8830    1.0310 n         1 MOL     -0.401111
    163 C49         4.0070    1.0360    2.1110 c3        1 MOL     -0.244551
    164 C50         4.4090    0.2130    3.3460 c         1 MOL      0.526255
    165 O22         4.1480    0.6110    4.4870 o         1 MOL     -0.532784
    166 C51         2.6140    0.6100    1.7570 c3        1 MOL      0.262660
    167 C52         2.1010    0.9110    0.3420 c3        1 MOL     -0.094313
    168 C53         0.8040    0.1740    0.0390 c         1 MOL      0.656120
    169 O23        -0.2760    0.5770    0.4460 o         1 MOL     -0.669149
    170 O24         0.8950   -0.8220   -0.8190 o         1 MOL     -0.669149
    171 H80         4.6990    0.4250    0.1760 hn        1 MOL      0.299880
    172 H81         3.8360    2.0910    2.3210 h1        1 MOL      0.126268
    173 H82         1.9250    1.1050    2.4410 hc        1 MOL      0.010574
    174 H83         2.4460   -0.4450    2.0080 hc        1 MOL      0.010574
    175 H84         2.8300    0.5380   -0.3680 hc        1 MOL     -0.037765
    176 H85         1.9610    1.9960    0.2250 hc        1 MOL     -0.037765
    177 N15         5.1120   -0.9030    3.0810 n         1 MOL     -0.100944
    178 C54         5.4480   -1.9100    4.1220 c3        1 MOL     -0.430030
    179 H86         4.7420   -1.8270    4.9490 h1        1 MOL      0.150715
    180 H87         5.3890   -2.9100    3.6930 h1        1 MOL      0.150715
    181 H88         6.4590   -1.7300    4.4890 h1        1 MOL      0.150715
    182 H89         5.3370   -1.1260    2.1240 hn        1 MOL      0.203378
    183 Ca1        -1.9260   -0.1350   -1.3840 Ca        1 MOL      1.775418
    184 O25        -1.4920   -2.3530   -2.7730 oh        1 MOL     -0.887467
    185 H90        -1.9280   -3.1910   -2.6190 ho        1 MOL      0.399620
    186 H91        -0.9120   -2.5180   -3.5190 ho        1 MOL      0.399620
    187 O26        -0.3010    1.1440   -3.0080 oh        1 MOL     -0.887467
    188 H92         0.5540    1.1260   -3.4510 ho        1 MOL      0.399620
    189 H93        -0.7110    1.9410   -3.3180 ho        1 MOL      0.399620
@<TRIPOS>BOND
     1    1    2 1   
     2    1    4 1   
     3    1    5 1   
     4    1    6 1   
     5    2    3 2   
     6    2    7 1   
     7    7    8 1   
     8    7   15 1   
     9    8    9 1   
    10    8   11 1   
    11    8   16 1   
    12    9   10 2   
    13    9   19 1   
    14   11   12 1   
    15   11   17 1   
    16   11   18 1   
    17   12   13 1   
    18   12   14 1   
    19   19   20 1   
    20   19   28 1   
    21   20   21 1   
    22   20   23 1   
    23   20   29 1   
    24   21   22 2   
    25   21   41 1   
    26   23   24 1   
    27   23   30 1   
    28   23   31 1   
    29   24   25 1   
    30   24   32 1   
    31   24   33 1   
    32   25   26 1   
    33   25   34 1   
    34   25   35 1   
    35   26   27 1   
    36   26   36 1   
    37   26   37 1   
    38   27   38 1   
    39   27   39 1   
    40   27   40 1   
    41   41   42 1   
    42   41   49 1   
    43   42   43 1   
    44   42   45 1   
    45   42   50 1   
    46   43   44 2   
    47   43   53 1   
    48   45   46 1   
    49   45   51 1   
    50   45   52 1   
    51   46   47 1   
    52   46   48 1   
    53   53   54 1   
    54   53   57 1   
    55   54   55 1   
    56   54   58 1   
    57   54   59 1   
    58   55   56 2   
    59   55   60 1   
    60   60   61 1   
    61   60   68 1   
    62   61   62 1   
    63   61   64 1   
    64   61   69 1   
    65   62   63 2   
    66   62   72 1   
    67   64   65 1   
    68   64   70 1   
    69   64   71 1   
    70   65   66 1   
    71   65   67 1   
    72   72   73 1   
    73   72   76 1   
    74   73   74 1   
    75   73   77 1   
    76   73   78 1   
    77   74   75 2   
    78   74   79 1   
    79   79   80 1   
    80   79   86 1   
    81   80   81 1   
    82   80   83 1   
    83   80   87 1   
    84   81   82 2   
    85   81   93 1   
    86   83   84 1   
    87   83   85 1   
    88   83   88 1   
    89   84   90 1   
    90   84   91 1   
    91   84   92 1   
    92   85   89 1   
    93   93   94 1   
    94   93  101 1   
    95   94   95 1   
    96   94   97 1   
    97   94  102 1   
    98   95   96 2   
    99   95  112 1   
   100   97   98 1   
   101   97   99 1   
   102   97  103 1   
   103   98  100 1   
   104   98  104 1   
   105   98  105 1   
   106   99  106 1   
   107   99  107 1   
   108   99  108 1   
   109  100  109 1   
   110  100  110 1   
   111  100  111 1   
   112  112  113 1   
   113  112  119 1   
   114  113  114 1   
   115  113  116 1   
   116  113  120 1   
   117  114  115 2   
   118  114  126 1   
   119  116  117 1   
   120  116  118 1   
   121  116  121 1   
   122  117  123 1   
   123  117  124 1   
   124  117  125 1   
   125  118  122 1   
   126  126  127 1   
   127  126  133 1   
   128  127  128 1   
   129  127  130 1   
   130  127  134 1   
   131  128  129 2   
   132  128  140 1   
   133  130  131 1   
   134  130  132 1   
   135  130  135 1   
   136  131  137 1   
   137  131  138 1   
   138  131  139 1   
   139  132  136 1   
   140  140  141 1   
   141  140  149 1   
   142  141  142 1   
   143  141  144 1   
   144  141  150 1   
   145  142  143 2   
   146  142  162 1   
   147  144  145 1   
   148  144  151 1   
   149  144  152 1   
   150  145  146 1   
   151  145  153 1   
   152  145  154 1   
   153  146  147 1   
   154  146  155 1   
   155  146  156 1   
   156  147  148 1   
   157  147  157 1   
   158  147  158 1   
   159  148  159 1   
   160  148  160 1   
   161  148  161 1   
   162  162  163 1   
   163  162  171 1   
   164  163  164 1   
   165  163  166 1   
   166  163  172 1   
   167  164  165 2   
   168  164  177 1   
   169  166  167 1   
   170  166  173 1   
   171  166  174 1   
   172  167  168 1   
   173  167  175 1   
   174  167  176 1   
   175  168  169 1   
   176  168  170 1   
   177  177  178 1   
   178  177  182 1   
   179  178  179 1   
   180  178  180 1   
   181  178  181 1   
   182  184  185 1   
   183  184  186 1   
   184  187  188 1   
   185  187  189 1   
@<TRIPOS>SUBSTRUCTURE
     1 MOL         1 TEMP              0 ****  ****    0 ROOT
