@<TRIPOS>MOLECULE
MOL
  189   185     1     0     0
SMALL
resp


@<TRIPOS>ATOM
      1 C1         -0.5720    2.2650    6.2350 c3        1 MOL     -0.266003
      2 C2         -0.7830    2.2210    4.7410 c         1 MOL      0.724442
      3 O1          0.1500    2.2890    3.9130 o         1 MOL     -0.708891
      4 H1         -0.9410    1.3430    6.6810 hc        1 MOL      0.067686
      5 H2          0.4910    2.3720    6.4500 hc        1 MOL      0.067686
      6 H3         -1.1140    3.1130    6.6540 hc        1 MOL      0.067686
      7 N1         -1.9900    1.9680    4.3260 n         1 MOL     -0.550414
      8 C3         -2.3810    1.7460    2.9090 c3        1 MOL      0.105149
      9 C4         -2.7000    3.0790    2.2570 c         1 MOL      0.496236
     10 O2         -3.6330    3.7840    2.7070 o         1 MOL     -0.521870
     11 C5         -3.5010    0.7890    2.8720 c3        1 MOL     -0.415988
     12 C6         -4.0840    0.5630    1.4850 c         1 MOL      0.838746
     13 O3         -5.0720   -0.1640    1.4180 o         1 MOL     -0.674061
     14 O4         -3.5550    1.1140    0.5150 o         1 MOL     -0.674061
     15 H4         -2.6970    1.8900    5.0440 hn        1 MOL      0.320163
     16 H5         -1.5690    1.2380    2.3840 h1        1 MOL      0.057157
     17 H6         -4.2020    1.2830    3.5400 hc        1 MOL      0.105814
     18 H7         -3.1390   -0.1130    3.3530 hc        1 MOL      0.105814
     19 N2         -1.9130    3.5800    1.2460 n         1 MOL     -0.347400
     20 C7         -2.0630    4.9690    0.7600 c3        1 MOL     -0.032599
     21 C8         -3.2070    5.3060   -0.2650 c         1 MOL      0.469215
     22 O5         -3.7950    6.3950   -0.2880 o         1 MOL     -0.556807
     23 C9         -0.6460    5.3010    0.1410 c3        1 MOL     -0.302500
     24 C10         0.4740    5.1150    1.2760 c3        1 MOL      0.306810
     25 C11         1.8080    5.6350    0.7720 c3        1 MOL     -0.281790
     26 C12         2.9730    5.1750    1.7780 c3        1 MOL     -0.027533
     27 N3          3.0040    6.0030    3.0040 n4        1 MOL     -0.307083
     28 H8         -1.3660    2.8840    0.7660 hn        1 MOL      0.354553
     29 H9         -2.2900    5.5230    1.6670 h1        1 MOL      0.091449
     30 H10        -0.6180    6.3330   -0.1960 hc        1 MOL      0.097887
     31 H11        -0.3730    4.5680   -0.6170 hc        1 MOL      0.097887
     32 H12         0.5420    4.0570    1.5220 hc        1 MOL     -0.032015
     33 H13         0.0910    5.6640    2.1300 hc        1 MOL     -0.032015
     34 H14         1.7060    6.7070    0.6050 hc        1 MOL      0.088372
     35 H15         2.0240    5.1880   -0.1890 hc        1 MOL      0.088372
     36 H16         3.9360    5.2740    1.2880 hx        1 MOL      0.126475
     37 H17         2.8830    4.1170    2.0260 hx        1 MOL      0.126475
     38 H18         3.4890    5.4860    3.7230 hn        1 MOL      0.312472
     39 H19         3.5010    6.8740    2.8920 hn        1 MOL      0.312472
     40 H20         2.1310    6.2510    3.4370 hn        1 MOL      0.312472
     41 N4         -3.4790    4.3300   -1.1430 n         1 MOL     -0.210699
     42 C13        -4.4280    4.3780   -2.1980 c3        1 MOL      0.157259
     43 C14        -5.7330    3.7710   -1.7750 c         1 MOL      0.338353
     44 O6         -6.7790    4.3290   -2.1850 o         1 MOL     -0.529409
     45 C15        -3.9630    3.7280   -3.5030 c3        1 MOL     -0.434668
     46 C16        -2.8300    2.7110   -3.3430 c         1 MOL      0.786576
     47 O7         -1.9670    2.7300   -4.2380 o         1 MOL     -0.683232
     48 O8         -2.6940    2.0070   -2.3260 o         1 MOL     -0.683232
     49 H21        -2.9400    3.5060   -0.9360 hn        1 MOL      0.105871
     50 H22        -4.5890    5.4160   -2.4940 h1        1 MOL      0.076927
     51 H23        -3.6020    4.6000   -4.0380 hc        1 MOL      0.129545
     52 H24        -4.7910    3.3430   -4.0920 hc        1 MOL      0.129545
     53 N5         -5.6950    2.5940   -1.1510 n         1 MOL      0.009053
     54 C17        -6.9290    1.9410   -0.6920 c3        1 MOL      0.019404
     55 C18        -7.3860    0.6480   -1.3300 c         1 MOL      0.472112
     56 O9         -8.3510    0.6820   -2.1220 o         1 MOL     -0.531293
     57 H25        -4.8340    2.1720   -0.8360 hn        1 MOL      0.049489
     58 H26        -7.7550    2.6430   -0.6990 h1        1 MOL      0.028512
     59 H27        -6.7420    1.8010    0.3690 h1        1 MOL      0.028512
     60 N6         -6.6990   -0.4790   -1.1120 n         1 MOL     -0.379847
     61 C19        -6.9330   -1.7150   -1.7860 c3        1 MOL      0.061918
     62 C20        -7.0050   -2.9210   -0.7530 c         1 MOL      0.461963
     63 O10        -7.2550   -4.0180   -1.2320 o         1 MOL     -0.509185
     64 C21        -5.9050   -1.8360   -2.9900 c3        1 MOL     -0.093851
     65 C22        -4.5020   -1.3980   -2.5080 c         1 MOL      0.507115
     66 O11        -4.1330   -1.7960   -1.3770 o         1 MOL     -0.612630
     67 O12        -3.8270   -0.5670   -3.1710 o         1 MOL     -0.612630
     68 H28        -5.8780   -0.3770   -0.5280 hn        1 MOL      0.234912
     69 H29        -7.9740   -1.6650   -2.1100 h1        1 MOL      0.074590
     70 H30        -6.2180   -1.2140   -3.8240 hc        1 MOL      0.051566
     71 H31        -5.9610   -2.8570   -3.3630 hc        1 MOL      0.051566
     72 N7         -6.7940   -2.6340    0.5450 n         1 MOL     -0.333687
     73 C23        -6.6700   -3.6970    1.4520 c3        1 MOL     -0.071580
     74 C24        -5.3440   -4.4040    1.3410 c         1 MOL      0.422208
     75 O13        -5.1690   -5.5250    1.8700 o         1 MOL     -0.556842
     76 H32        -6.7150   -1.6740    0.8540 hn        1 MOL      0.268455
     77 H33        -7.4240   -4.4770    1.3510 h1        1 MOL      0.094013
     78 H34        -6.7980   -3.3420    2.4790 h1        1 MOL      0.094013
     79 N8         -4.3530   -3.7760    0.6820 n         1 MOL     -0.089205
     80 C25        -3.0290   -4.3940    0.5110 c3        1 MOL     -0.182723
     81 C26        -1.8240   -3.4400    0.6880 c         1 MOL      0.574630
     82 O14        -1.8660   -2.3120    0.3080 o         1 MOL     -0.591217
     83 C27        -2.8880   -5.0680   -0.8740 c3        1 MOL      0.515704
     84 C28        -3.6680   -6.3420   -1.0860 c3        1 MOL     -0.506304
     85 O15        -3.2550   -4.2010   -1.9630 oh        1 MOL     -0.698136
     86 H35        -4.5670   -2.9740    0.1000 hn        1 MOL      0.025815
     87 H36        -2.9280   -5.1890    1.2530 h1        1 MOL      0.098472
     88 H37        -1.8460   -5.2950   -1.0710 h1        1 MOL     -0.041074
     89 H38        -3.5730   -3.3450   -1.6770 ho        1 MOL      0.509761
     90 H39        -3.4300   -6.7060   -2.0870 hc        1 MOL      0.131216
     91 H40        -3.3140   -7.0460   -0.3310 hc        1 MOL      0.131216
     92 H41        -4.7300   -6.2030   -0.9040 hc        1 MOL      0.131216
     93 N9         -0.7620   -3.9000    1.3220 n         1 MOL     -0.497255
     94 C29         0.4480   -3.1650    1.5680 c3        1 MOL      0.034265
     95 C30         1.4510   -3.7520    0.6950 c         1 MOL      0.531417
     96 O16         1.6730   -4.9950    0.7520 o         1 MOL     -0.570164
     97 C31         0.8230   -3.0980    3.1060 c3        1 MOL     -0.068563
     98 C32        -0.1250   -2.0240    3.8710 c3        1 MOL     -0.053009
     99 C33         2.2050   -2.7350    3.4290 c3        1 MOL     -0.374387
    100 C34        -0.4280   -2.4310    5.3180 c3        1 MOL     -0.188560
    101 H42        -0.6670   -4.8600    1.6010 hn        1 MOL      0.287127
    102 H43         0.3810   -2.1580    1.1570 h1        1 MOL      0.063804
    103 H44         0.7430   -4.1410    3.3960 hc        1 MOL      0.112141
    104 H45        -1.0560   -1.9350    3.3210 hc        1 MOL      0.106449
    105 H46         0.2680   -1.0110    3.9110 hc        1 MOL      0.106449
    106 H47         2.5290   -1.7950    2.9840 hc        1 MOL      0.099652
    107 H48         2.3130   -2.4120    4.4580 hc        1 MOL      0.099652
    108 H49         2.8880   -3.5580    3.1880 hc        1 MOL      0.099652
    109 H50        -0.1460   -3.4410    5.6150 hc        1 MOL      0.050606
    110 H51         0.1460   -1.7720    5.9620 hc        1 MOL      0.050606
    111 H52        -1.4750   -2.2890    5.5540 hc        1 MOL      0.050606
    112 N10         2.1360   -2.9200   -0.0940 n         1 MOL     -0.282760
    113 C35         3.2260   -3.0780   -1.0570 c3        1 MOL      0.035953
    114 C36         4.5440   -2.5680   -0.4990 c         1 MOL      0.405080
    115 O17         4.5490   -1.8610    0.4860 o         1 MOL     -0.402335
    116 C37         2.9500   -2.3590   -2.4040 c3        1 MOL      0.289141
    117 C38         1.6980   -2.7180   -3.2030 c3        1 MOL     -0.194998
    118 O18         2.8440   -1.0110   -2.1370 oh        1 MOL     -0.674681
    119 H53         1.7480   -2.0050    0.0470 hn        1 MOL      0.193189
    120 H54         3.4130   -4.1070   -1.3460 h1        1 MOL      0.055613
    121 H55         3.8400   -2.5930   -2.9950 h1        1 MOL     -0.016627
    122 H56         2.0690   -0.7600   -1.6300 ho        1 MOL      0.442081
    123 H57         1.1520   -1.8460   -3.5650 hc        1 MOL      0.058934
    124 H58         1.8650   -3.4500   -3.9890 hc        1 MOL      0.058934
    125 H59         1.1090   -3.3320   -2.5290 hc        1 MOL      0.058934
    126 N11         5.7170   -2.7870   -1.0810 n         1 MOL     -0.337413
    127 C39         7.0290   -2.5030   -0.4560 c3        1 MOL      0.015279
    128 C40         7.2220   -1.0030   -0.0750 c         1 MOL      0.349524
    129 O19         7.5810   -0.7400    1.1030 o         1 MOL     -0.502618
    130 C41         8.2860   -3.0240   -1.2360 c3        1 MOL      0.368825
    131 C42         9.4490   -3.3130   -0.2180 c3        1 MOL     -0.504444
    132 O20         7.9920   -4.2400   -1.8870 oh        1 MOL     -0.658243
    133 H60         5.7160   -3.3220   -1.9430 hn        1 MOL      0.241290
    134 H61         7.0550   -3.0500    0.4800 h1        1 MOL      0.133408
    135 H62         8.6180   -2.3050   -1.9920 h1        1 MOL     -0.027501
    136 H63         8.7160   -4.7160   -2.2890 ho        1 MOL      0.429113
    137 H64        10.3330   -3.3720   -0.8480 hc        1 MOL      0.141622
    138 H65         9.6700   -2.4790    0.4430 hc        1 MOL      0.141622
    139 H66         9.3590   -4.2080    0.4190 hc        1 MOL      0.141622
    140 N12         6.8670   -0.0890   -0.9690 n         1 MOL     -0.374366
    141 C43         6.8140    1.3700   -0.6670 c3        1 MOL      0.160811
    142 C44         5.8870    1.8940    0.4380 c         1 MOL      0.397219
    143 O21         6.0050    3.0570    0.9030 o         1 MOL     -0.577656
    144 C45         6.4410    1.9780   -2.0110 c3        1 MOL     -0.444148
    145 C46         7.6870    2.1080   -2.9250 c3        1 MOL      0.368568
    146 C47         7.4000    2.5020   -4.3340 c3        1 MOL     -0.084455
    147 C48         8.6420    2.5420   -5.1970 c3        1 MOL     -0.119463
    148 N13         9.5790    1.4070   -5.0950 n4        1 MOL     -0.123603
    149 H67         6.4220   -0.3870   -1.8230 hn        1 MOL      0.253510
    150 H68         7.8010    1.7860   -0.4490 h1        1 MOL      0.071347
    151 H69         6.1510    3.0040   -1.7670 hc        1 MOL      0.126398
    152 H70         5.6680    1.3700   -2.4800 hc        1 MOL      0.126398
    153 H71         8.2760    1.1860   -2.9080 hc        1 MOL     -0.073390
    154 H72         8.3700    2.8330   -2.4850 hc        1 MOL     -0.073390
    155 H73         6.9500    3.4940   -4.3450 hc        1 MOL      0.065297
    156 H74         6.6590    1.8020   -4.7290 hc        1 MOL      0.065297
    157 H75         9.2540    3.3790   -4.8520 hx        1 MOL      0.118471
    158 H76         8.3830    2.6290   -6.2450 hx        1 MOL      0.118471
    159 H77        10.1800    1.5200   -4.2890 hn        1 MOL      0.240364
    160 H78         9.1740    0.4790   -5.0550 hn        1 MOL      0.240364
    161 H79        10.2610    1.4920   -5.8340 hn        1 MOL      0.240364
    162 N14         4.9740    1.1020    0.9300 n         1 MOL     -0.156115
    163 C49         4.0260    1.2410    2.0650 c3        1 MOL     -0.090504
    164 C50         4.4360    0.3980    3.3240 c         1 MOL      0.517447
    165 O22         4.0600    0.7330    4.4430 o         1 MOL     -0.536215
    166 C51         2.6620    0.7450    1.6080 c3        1 MOL      0.293289
    167 C52         2.0720    1.4500    0.4100 c3        1 MOL     -0.082967
    168 C53         0.7620    0.8160   -0.0780 c         1 MOL      0.735043
    169 O23         0.7770   -0.2610   -0.7010 o         1 MOL     -0.766583
    170 O24        -0.3370    1.3480    0.1750 o         1 MOL     -0.766583
    171 H80         4.8240    0.2680    0.3810 hn        1 MOL      0.196551
    172 H81         3.9470    2.2820    2.3790 h1        1 MOL      0.049042
    173 H82         1.9420    0.9800    2.3850 hc        1 MOL     -0.020630
    174 H83         2.6580   -0.3150    1.3260 hc        1 MOL     -0.020630
    175 H84         2.7700    1.3960   -0.4190 hc        1 MOL     -0.026409
    176 H85         1.9470    2.4770    0.7640 hc        1 MOL     -0.026409
    177 N15         5.1940   -0.7080    3.2050 n         1 MOL     -0.330324
    178 C54         5.5990   -1.6110    4.3180 c3        1 MOL     -0.137896
    179 H86         4.8940   -2.4400    4.3880 h1        1 MOL      0.090360
    180 H87         6.5980   -2.0010    4.1260 h1        1 MOL      0.090360
    181 H88         5.5980   -1.0560    5.2560 h1        1 MOL      0.090360
    182 H89         5.2920   -1.0970    2.2720 hn        1 MOL      0.233525
    183 Ca1        -1.9050   -0.1070   -1.2820 Ca        1 MOL      1.734288
    184 O25        -1.4770   -2.2260   -2.7890 oh        1 MOL     -0.805074
    185 H90        -1.9500   -3.0400   -2.5990 ho        1 MOL      0.372297
    186 H91        -1.1300   -2.3380   -3.6700 ho        1 MOL      0.372297
    187 O26        -0.4620    0.8140   -3.4490 oh        1 MOL     -0.805074
    188 H92         0.3780    1.2760   -3.4530 ho        1 MOL      0.372297
    189 H93        -1.0830    1.4530   -3.7910 ho        1 MOL      0.372297
@<TRIPOS>BOND
     1    1    2 1   
     2    1    4 1   
     3    1    5 1   
     4    1    6 1   
     5    2    3 2   
     6    2    7 1   
     7    7    8 1   
     8    7   15 1   
     9    8    9 1   
    10    8   11 1   
    11    8   16 1   
    12    9   10 2   
    13    9   19 1   
    14   11   12 1   
    15   11   17 1   
    16   11   18 1   
    17   12   13 1   
    18   12   14 1   
    19   19   20 1   
    20   19   28 1   
    21   20   21 1   
    22   20   23 1   
    23   20   29 1   
    24   21   22 2   
    25   21   41 1   
    26   23   24 1   
    27   23   30 1   
    28   23   31 1   
    29   24   25 1   
    30   24   32 1   
    31   24   33 1   
    32   25   26 1   
    33   25   34 1   
    34   25   35 1   
    35   26   27 1   
    36   26   36 1   
    37   26   37 1   
    38   27   38 1   
    39   27   39 1   
    40   27   40 1   
    41   41   42 1   
    42   41   49 1   
    43   42   43 1   
    44   42   45 1   
    45   42   50 1   
    46   43   44 2   
    47   43   53 1   
    48   45   46 1   
    49   45   51 1   
    50   45   52 1   
    51   46   47 1   
    52   46   48 1   
    53   53   54 1   
    54   53   57 1   
    55   54   55 1   
    56   54   58 1   
    57   54   59 1   
    58   55   56 2   
    59   55   60 1   
    60   60   61 1   
    61   60   68 1   
    62   61   62 1   
    63   61   64 1   
    64   61   69 1   
    65   62   63 2   
    66   62   72 1   
    67   64   65 1   
    68   64   70 1   
    69   64   71 1   
    70   65   66 1   
    71   65   67 1   
    72   72   73 1   
    73   72   76 1   
    74   73   74 1   
    75   73   77 1   
    76   73   78 1   
    77   74   75 2   
    78   74   79 1   
    79   79   80 1   
    80   79   86 1   
    81   80   81 1   
    82   80   83 1   
    83   80   87 1   
    84   81   82 2   
    85   81   93 1   
    86   83   84 1   
    87   83   85 1   
    88   83   88 1   
    89   84   90 1   
    90   84   91 1   
    91   84   92 1   
    92   85   89 1   
    93   93   94 1   
    94   93  101 1   
    95   94   95 1   
    96   94   97 1   
    97   94  102 1   
    98   95   96 2   
    99   95  112 1   
   100   97   98 1   
   101   97   99 1   
   102   97  103 1   
   103   98  100 1   
   104   98  104 1   
   105   98  105 1   
   106   99  106 1   
   107   99  107 1   
   108   99  108 1   
   109  100  109 1   
   110  100  110 1   
   111  100  111 1   
   112  112  113 1   
   113  112  119 1   
   114  113  114 1   
   115  113  116 1   
   116  113  120 1   
   117  114  115 2   
   118  114  126 1   
   119  116  117 1   
   120  116  118 1   
   121  116  121 1   
   122  117  123 1   
   123  117  124 1   
   124  117  125 1   
   125  118  122 1   
   126  126  127 1   
   127  126  133 1   
   128  127  128 1   
   129  127  130 1   
   130  127  134 1   
   131  128  129 2   
   132  128  140 1   
   133  130  131 1   
   134  130  132 1   
   135  130  135 1   
   136  131  137 1   
   137  131  138 1   
   138  131  139 1   
   139  132  136 1   
   140  140  141 1   
   141  140  149 1   
   142  141  142 1   
   143  141  144 1   
   144  141  150 1   
   145  142  143 2   
   146  142  162 1   
   147  144  145 1   
   148  144  151 1   
   149  144  152 1   
   150  145  146 1   
   151  145  153 1   
   152  145  154 1   
   153  146  147 1   
   154  146  155 1   
   155  146  156 1   
   156  147  148 1   
   157  147  157 1   
   158  147  158 1   
   159  148  159 1   
   160  148  160 1   
   161  148  161 1   
   162  162  163 1   
   163  162  171 1   
   164  163  164 1   
   165  163  166 1   
   166  163  172 1   
   167  164  165 2   
   168  164  177 1   
   169  166  167 1   
   170  166  173 1   
   171  166  174 1   
   172  167  168 1   
   173  167  175 1   
   174  167  176 1   
   175  168  169 1   
   176  168  170 1   
   177  177  178 1   
   178  177  182 1   
   179  178  179 1   
   180  178  180 1   
   181  178  181 1   
   182  184  185 1   
   183  184  186 1   
   184  187  188 1   
   185  187  189 1   
@<TRIPOS>SUBSTRUCTURE
     1 MOL         1 TEMP              0 ****  ****    0 ROOT
