@<TRIPOS>MOLECULE
MOL
  186   183     1     0     0
SMALL
resp


@<TRIPOS>ATOM
      1 C1         -0.4880   -3.0890   -5.9970 c3        1 MOL     -0.414943
      2 C2         -0.8400   -2.8300   -4.5280 c         1 MOL      0.765775
      3 O1         -0.1390   -3.3180   -3.5930 o         1 MOL     -0.647248
      4 H1          0.3490   -2.4540   -6.2870 hc        1 MOL      0.101154
      5 H2         -0.2100   -4.1360   -6.1250 hc        1 MOL      0.101154
      6 H3         -1.3500   -2.8610   -6.6240 hc        1 MOL      0.101154
      7 N1         -1.8920   -2.1010   -4.2450 n         1 MOL     -0.555202
      8 C3         -2.4610   -1.8280   -2.9400 c3        1 MOL      0.194926
      9 C4         -3.0460   -3.0870   -2.3000 c         1 MOL      0.530335
     10 O2         -4.0030   -3.7000   -2.7700 o         1 MOL     -0.532279
     11 C5         -3.6110   -0.7520   -2.9590 c3        1 MOL     -0.424576
     12 C6         -4.3820   -0.4370   -1.6840 c         1 MOL      0.671816
     13 O3         -3.8720   -0.8450   -0.5630 o         1 MOL     -0.570378
     14 O4         -5.4900    0.1510   -1.7580 o         1 MOL     -0.570378
     15 H4         -2.2810   -1.6370   -5.0560 hn        1 MOL      0.294797
     16 H5         -1.7100   -1.3380   -2.3290 h1        1 MOL      0.027473
     17 H6         -4.3950   -1.1140   -3.6380 hc        1 MOL      0.090305
     18 H7         -3.2200    0.1790   -3.3580 hc        1 MOL      0.090305
     19 N2         -2.3590   -3.5150   -1.2170 n         1 MOL     -0.369887
     20 C7         -2.6050   -4.8360   -0.6520 c3        1 MOL     -0.085837
     21 C8         -3.7650   -4.9480    0.2650 c         1 MOL      0.435270
     22 O5         -4.6150   -5.8420    0.0260 o         1 MOL     -0.561955
     23 C9         -1.2680   -5.3960   -0.0890 c3        1 MOL      0.201817
     24 C10        -0.0420   -5.1290   -0.9790 c3        1 MOL      0.375711
     25 C11        -1.3780   -6.8970    0.1250 c3        1 MOL     -0.297579
     26 C12         1.3350   -5.7390   -0.5470 c3        1 MOL     -0.297518
     27 H8         -1.6590   -2.9470   -0.7670 hn        1 MOL      0.128932
     28 H9         -2.8920   -5.3870   -1.5520 h1        1 MOL      0.090023
     29 H10        -0.9550   -4.9430    0.8570 hc        1 MOL     -0.008335
     30 H11         0.0550   -4.0520   -1.1090 hc        1 MOL     -0.056722
     31 H12        -0.1980   -5.6310   -1.9400 hc        1 MOL     -0.056722
     32 H13        -0.4400   -7.1680    0.6150 hc        1 MOL      0.049122
     33 H14        -2.2200   -7.1590    0.7560 hc        1 MOL      0.049122
     34 H15        -1.4190   -7.3630   -0.8570 hc        1 MOL      0.049122
     35 H16         2.0330   -5.2640   -1.2360 hc        1 MOL      0.051406
     36 H17         1.4320   -5.4050    0.4840 hc        1 MOL      0.051406
     37 H18         1.3300   -6.8270   -0.6180 hc        1 MOL      0.051406
     38 N3         -3.8540   -4.0450    1.2570 n         1 MOL     -0.341512
     39 C13        -4.8840   -3.9140    2.2560 c3        1 MOL      0.274846
     40 C14        -6.0770   -3.0140    1.8310 c         1 MOL      0.365621
     41 O6         -7.0470   -2.9810    2.6200 o         1 MOL     -0.519904
     42 C15        -4.2570   -3.5310    3.5560 c3        1 MOL     -0.407098
     43 C16        -3.5550   -2.2270    3.5090 c         1 MOL      0.877639
     44 O7         -3.5550   -1.5120    2.4920 o         1 MOL     -0.713861
     45 O8         -2.8960   -1.8800    4.5460 o         1 MOL     -0.713861
     46 H19        -3.1360   -3.3250    1.2680 hn        1 MOL      0.219881
     47 H20        -5.3730   -4.8830    2.3510 h1        1 MOL      0.027157
     48 H21        -3.5750   -4.3610    3.7290 hc        1 MOL      0.082872
     49 H22        -5.0200   -3.5170    4.3360 hc        1 MOL      0.082872
     50 N4         -6.0910   -2.4230    0.5990 n         1 MOL     -0.273903
     51 C17        -7.3390   -1.9060    0.1110 c3        1 MOL     -0.288652
     52 C18        -7.8630   -0.5720    0.6910 c         1 MOL      0.513410
     53 O9         -9.1040   -0.3530    0.7900 o         1 MOL     -0.583899
     54 H23        -5.2540   -2.2150    0.0760 hn        1 MOL      0.332481
     55 H24        -8.1590   -2.5690    0.3860 h1        1 MOL      0.129603
     56 H25        -7.2250   -1.9230   -0.9650 h1        1 MOL      0.129603
     57 N5         -6.9340    0.3930    1.0120 n         1 MOL     -0.197165
     58 C19        -7.2920    1.7740    1.3270 c3        1 MOL      0.040458
     59 C20        -7.4410    2.7040    0.0890 c         1 MOL      0.321828
     60 O10        -7.9700    3.8260    0.2880 o         1 MOL     -0.557043
     61 C21        -6.2520    2.3050    2.2800 c3        1 MOL     -0.090090
     62 C22        -4.7960    1.8420    2.0680 c         1 MOL      0.484488
     63 O11        -4.0520    1.4540    3.0350 o         1 MOL     -0.646896
     64 O12        -4.2890    1.8900    0.9380 o         1 MOL     -0.646896
     65 H26        -5.9680    0.1800    0.7630 hn        1 MOL      0.161462
     66 H27        -8.1780    1.8890    1.9490 h1        1 MOL      0.083565
     67 H28        -6.5860    1.9840    3.2620 hc        1 MOL      0.035565
     68 H29        -6.3740    3.3790    2.2290 hc        1 MOL      0.035565
     69 N6         -6.9040    2.3340   -1.0230 n         1 MOL     -0.062953
     70 C23        -6.7310    3.1210   -2.2180 c3        1 MOL      0.000569
     71 C24        -5.4250    3.9500   -2.3310 c         1 MOL      0.495688
     72 O13        -5.4820    5.0200   -2.9700 o         1 MOL     -0.576351
     73 H30        -6.3250    1.4990   -1.1000 hn        1 MOL      0.071321
     74 H31        -7.5590    3.8250   -2.3450 h1        1 MOL      0.032119
     75 H32        -6.7340    2.4970   -3.1110 h1        1 MOL      0.032119
     76 N7         -4.3570    3.6010   -1.5780 n         1 MOL     -0.137734
     77 C25        -3.0790    4.2420   -1.7110 c3        1 MOL      0.047126
     78 C26        -1.9060    3.2230   -1.6210 c         1 MOL      0.624899
     79 O14        -1.9020    2.3240   -0.8210 o         1 MOL     -0.598353
     80 C27        -2.8720    5.5630   -0.8910 c3        1 MOL     -0.368653
     81 C28        -2.8160    5.4700    0.5830 c3        1 MOL     -0.046134
     82 C29        -3.0190    6.7810    1.3850 c         1 MOL      0.680877
     83 N8         -3.1440    6.6750    2.7110 n         1 MOL     -0.870280
     84 O15        -2.8460    7.9000    0.9240 o         1 MOL     -0.577234
     85 H33        -4.4070    2.7220   -1.0820 hn        1 MOL      0.102354
     86 H34        -2.9940    4.5120   -2.7660 h1        1 MOL     -0.014610
     87 H35        -3.7970    6.1110   -1.0730 hc        1 MOL      0.120193
     88 H36        -1.9890    6.0320   -1.3110 hc        1 MOL      0.120193
     89 H37        -1.8150    5.0890    0.7990 hc        1 MOL      0.073768
     90 H38        -3.4950    4.6740    0.8850 hc        1 MOL      0.073768
     91 H39        -3.0820    5.7430    3.1130 hn        1 MOL      0.383009
     92 H40        -3.3200    7.5390    3.2120 hn        1 MOL      0.383009
     93 N9         -0.7910    3.4140   -2.3940 n         1 MOL     -0.459260
     94 C30         0.3190    2.4140   -2.3860 c3        1 MOL     -0.014711
     95 C31         1.4760    2.9550   -1.5180 c         1 MOL      0.492168
     96 O16         2.1900    3.9060   -1.8550 o         1 MOL     -0.567236
     97 C32         0.6490    2.0640   -3.8240 c3        1 MOL      0.142796
     98 C33         1.7840    0.9890   -3.7980 c3        1 MOL     -0.087892
     99 C34        -0.4460    1.4500   -4.6750 c3        1 MOL     -0.087892
    100 H41        -0.7550    4.2680   -2.9320 hn        1 MOL      0.283659
    101 H42        -0.0290    1.4760   -1.9430 h1        1 MOL      0.167443
    102 H43         1.0060    2.9000   -4.4170 hc        1 MOL     -0.011917
    103 H44         1.6050    0.3290   -4.6500 hc        1 MOL      0.007361
    104 H45         2.7190    1.5120   -3.9680 hc        1 MOL      0.007361
    105 H46         1.8220    0.3600   -2.9110 hc        1 MOL      0.007361
    106 H47        -0.6230    0.4250   -4.3710 hc        1 MOL      0.007361
    107 H48        -1.4240    1.9040   -4.5180 hc        1 MOL      0.007361
    108 H49        -0.2030    1.4720   -5.7370 hc        1 MOL      0.007361
    109 N10         1.8020    2.1610   -0.4660 n         1 MOL     -0.391769
    110 C35         2.9840    2.2420    0.4010 c3        1 MOL      0.167129
    111 C36         4.2820    1.7310   -0.2120 c         1 MOL      0.440156
    112 O17         4.2280    0.8270   -1.0760 o         1 MOL     -0.367939
    113 C37         2.6890    1.6320    1.8300 c3        1 MOL     -0.019891
    114 C38         3.4460    2.3540    2.9910 c         1 MOL      0.551028
    115 N11         3.1850    1.8710    4.1930 n         1 MOL     -0.746435
    116 O18         4.3500    3.0960    2.7920 o         1 MOL     -0.567448
    117 H50         1.1970    1.3860   -0.2180 hn        1 MOL      0.256058
    118 H51         3.1500    3.3030    0.6260 h1        1 MOL      0.021807
    119 H52         2.9340    0.5690    1.7670 hc        1 MOL      0.014374
    120 H53         1.6280    1.8270    1.9610 hc        1 MOL      0.014374
    121 H54         2.5410    1.1070    4.2990 hn        1 MOL      0.380775
    122 H55         3.7000    2.3440    4.9230 hn        1 MOL      0.380775
    123 N12         5.3960    2.3650    0.1310 n         1 MOL     -0.579964
    124 C39         6.7350    1.8630   -0.1710 c3        1 MOL      0.326203
    125 C40         6.9220    0.4480    0.1450 c         1 MOL      0.464787
    126 O19         7.3570   -0.2520   -0.7770 o         1 MOL     -0.547885
    127 C41         7.8730    2.6390    0.4490 c3        1 MOL     -0.012145
    128 C42         9.2600    2.0720    0.0380 ca        1 MOL     -0.207944
    129 C43         9.7130    2.4460   -1.1900 ca        1 MOL      0.050143
    130 C44         9.9000    1.0480    0.8450 ca        1 MOL      0.050143
    131 C45        11.0170    2.1160   -1.5620 ca        1 MOL     -0.388134
    132 C46        11.1960    0.7750    0.5160 ca        1 MOL     -0.388134
    133 C47        11.7600    1.3250   -0.6730 ca        1 MOL      0.440981
    134 O20        13.0360    0.9540   -0.9940 oh        1 MOL     -0.541865
    135 H56         5.2710    3.1530    0.7420 hn        1 MOL      0.297645
    136 H57         6.9200    1.9720   -1.2320 h1        1 MOL      0.018985
    137 H58         7.7730    2.5330    1.5300 hc        1 MOL      0.008647
    138 H59         7.8350    3.7030    0.2080 hc        1 MOL      0.008647
    139 H60         9.0600    3.0560   -1.7970 ha        1 MOL      0.093939
    140 H61         9.4660    0.6300    1.7340 ha        1 MOL      0.093939
    141 H62        11.4200    2.4210   -2.5250 ha        1 MOL      0.168701
    142 H63        11.7040   -0.0060    1.0460 ha        1 MOL      0.168701
    143 H64        13.4470    0.4700   -0.2780 ho        1 MOL      0.369400
    144 N13         6.4150   -0.1130    1.2440 n         1 MOL     -0.170233
    145 C48         6.4600   -1.5940    1.5390 c3        1 MOL     -0.032987
    146 C49         5.5190   -2.5250    0.6130 c         1 MOL      0.370895
    147 O21         5.7880   -3.7220    0.4440 o         1 MOL     -0.510591
    148 C50         6.1630   -1.8290    3.0440 c3        1 MOL     -0.210916
    149 C51         4.7940   -1.4800    3.6520 c3        1 MOL     -0.188674
    150 C52         4.7260   -1.6390    5.1920 c         1 MOL      0.683477
    151 O22         5.1900   -0.6990    5.8380 o         1 MOL     -0.723434
    152 O23         4.0340   -2.5570    5.7090 o         1 MOL     -0.723434
    153 H65         6.2520    0.5160    2.0220 hn        1 MOL      0.235298
    154 H66         7.4820   -1.9500    1.4490 h1        1 MOL      0.061215
    155 H67         6.9320   -1.1910    3.4770 hc        1 MOL      0.073255
    156 H68         6.1900   -2.8860    3.3030 hc        1 MOL      0.073255
    157 H69         4.1300   -2.1870    3.1710 hc        1 MOL      0.054874
    158 H70         4.4520   -0.4760    3.4040 hc        1 MOL      0.054874
    159 N14         4.4540   -1.8950    0.1290 n         1 MOL      0.017381
    160 C53         3.6170   -2.5530   -0.9670 c3        1 MOL     -0.199435
    161 C54         4.2580   -2.4540   -2.3500 c         1 MOL      0.503163
    162 O24         4.1850   -3.4170   -3.1230 o         1 MOL     -0.553633
    163 C55         2.1690   -1.9380   -0.9910 c3        1 MOL      0.192774
    164 C56         1.5420   -1.9610    0.3890 c3        1 MOL      0.011544
    165 C57         0.2360   -1.2630    0.3520 c         1 MOL      0.805553
    166 O25        -0.7840   -1.8920    0.5900 o         1 MOL     -0.788016
    167 O26         0.1800   -0.0270    0.1600 o         1 MOL     -0.788016
    168 H71         4.4280   -0.8970    0.2250 hn        1 MOL     -0.090908
    169 H72         3.4400   -3.5980   -0.7050 h1        1 MOL      0.121684
    170 H73         1.5400   -2.5720   -1.6030 hc        1 MOL     -0.004152
    171 H74         2.1710   -0.9420   -1.4220 hc        1 MOL     -0.004152
    172 H75         2.0510   -1.3970    1.1700 hc        1 MOL     -0.032559
    173 H76         1.4350   -3.0080    0.6710 hc        1 MOL     -0.032559
    174 N15         5.0640   -1.4260   -2.5880 n         1 MOL     -0.117807
    175 C58         5.6810   -1.1910   -3.8990 c3        1 MOL     -0.188364
    176 H77         6.4090   -0.3840   -3.8180 h1        1 MOL      0.075120
    177 H78         6.1820   -2.1000   -4.2330 h1        1 MOL      0.075120
    178 H79         4.9110   -0.9140   -4.6180 h1        1 MOL      0.075120
    179 H80         5.1230   -0.6560   -1.9330 hn        1 MOL      0.100636
    180 Ca1        -2.3480    0.3230    1.0440 Ca        1 MOL      1.667166
    181 O27        -1.2060   -0.2790    3.4470 oh        1 MOL     -0.761936
    182 H81        -1.7560   -0.9800    3.7950 ho        1 MOL      0.360604
    183 H82        -0.3050   -0.5530    3.6380 ho        1 MOL      0.360604
    184 O28        -0.9680    2.3300    2.3340 oh        1 MOL     -0.761936
    185 H83        -0.5890    1.9610    3.1270 ho        1 MOL      0.360604
    186 H84        -1.4440    3.1130    2.6300 ho        1 MOL      0.360604
@<TRIPOS>BOND
     1    1    2 1   
     2    1    4 1   
     3    1    5 1   
     4    1    6 1   
     5    2    3 2   
     6    2    7 1   
     7    7    8 1   
     8    7   15 1   
     9    8    9 1   
    10    8   11 1   
    11    8   16 1   
    12    9   10 2   
    13    9   19 1   
    14   11   12 1   
    15   11   17 1   
    16   11   18 1   
    17   12   13 1   
    18   12   14 1   
    19   19   20 1   
    20   19   27 1   
    21   20   21 1   
    22   20   23 1   
    23   20   28 1   
    24   21   22 2   
    25   21   38 1   
    26   23   24 1   
    27   23   25 1   
    28   23   29 1   
    29   24   26 1   
    30   24   30 1   
    31   24   31 1   
    32   25   32 1   
    33   25   33 1   
    34   25   34 1   
    35   26   35 1   
    36   26   36 1   
    37   26   37 1   
    38   38   39 1   
    39   38   46 1   
    40   39   40 1   
    41   39   42 1   
    42   39   47 1   
    43   40   41 2   
    44   40   50 1   
    45   42   43 1   
    46   42   48 1   
    47   42   49 1   
    48   43   44 1   
    49   43   45 1   
    50   50   51 1   
    51   50   54 1   
    52   51   52 1   
    53   51   55 1   
    54   51   56 1   
    55   52   53 2   
    56   52   57 1   
    57   57   58 1   
    58   57   65 1   
    59   58   59 1   
    60   58   61 1   
    61   58   66 1   
    62   59   60 2   
    63   59   69 1   
    64   61   62 1   
    65   61   67 1   
    66   61   68 1   
    67   62   63 1   
    68   62   64 1   
    69   69   70 1   
    70   69   73 1   
    71   70   71 1   
    72   70   74 1   
    73   70   75 1   
    74   71   72 2   
    75   71   76 1   
    76   76   77 1   
    77   76   85 1   
    78   77   78 1   
    79   77   80 1   
    80   77   86 1   
    81   78   79 2   
    82   78   93 1   
    83   80   81 1   
    84   80   87 1   
    85   80   88 1   
    86   81   82 1   
    87   81   89 1   
    88   81   90 1   
    89   82   83 1   
    90   82   84 2   
    91   83   91 1   
    92   83   92 1   
    93   93   94 1   
    94   93  100 1   
    95   94   95 1   
    96   94   97 1   
    97   94  101 1   
    98   95   96 2   
    99   95  109 1   
   100   97   98 1   
   101   97   99 1   
   102   97  102 1   
   103   98  103 1   
   104   98  104 1   
   105   98  105 1   
   106   99  106 1   
   107   99  107 1   
   108   99  108 1   
   109  109  110 1   
   110  109  117 1   
   111  110  111 1   
   112  110  113 1   
   113  110  118 1   
   114  111  112 2   
   115  111  123 1   
   116  113  114 1   
   117  113  119 1   
   118  113  120 1   
   119  114  115 1   
   120  114  116 2   
   121  115  121 1   
   122  115  122 1   
   123  123  124 1   
   124  123  135 1   
   125  124  125 1   
   126  124  127 1   
   127  124  136 1   
   128  125  126 2   
   129  125  144 1   
   130  127  128 1   
   131  127  137 1   
   132  127  138 1   
   133  128  129 ar  
   134  128  130 ar  
   135  129  131 ar  
   136  129  139 1   
   137  130  132 ar  
   138  130  140 1   
   139  131  133 ar  
   140  131  141 1   
   141  132  133 ar  
   142  132  142 1   
   143  133  134 1   
   144  134  143 1   
   145  144  145 1   
   146  144  153 1   
   147  145  146 1   
   148  145  148 1   
   149  145  154 1   
   150  146  147 2   
   151  146  159 1   
   152  148  149 1   
   153  148  155 1   
   154  148  156 1   
   155  149  150 1   
   156  149  157 1   
   157  149  158 1   
   158  150  151 1   
   159  150  152 1   
   160  159  160 1   
   161  159  168 1   
   162  160  161 1   
   163  160  163 1   
   164  160  169 1   
   165  161  162 2   
   166  161  174 1   
   167  163  164 1   
   168  163  170 1   
   169  163  171 1   
   170  164  165 1   
   171  164  172 1   
   172  164  173 1   
   173  165  166 1   
   174  165  167 1   
   175  174  175 1   
   176  174  179 1   
   177  175  176 1   
   178  175  177 1   
   179  175  178 1   
   180  181  182 1   
   181  181  183 1   
   182  184  185 1   
   183  184  186 1   
@<TRIPOS>SUBSTRUCTURE
     1 MOL         1 TEMP              0 ****  ****    0 ROOT
