@<TRIPOS>MOLECULE
MOL
  183   181     1     0     0
SMALL
resp


@<TRIPOS>ATOM
      1 C1         -0.5540    2.2740    6.2960 c3        1 MOL     -0.340989
      2 C2         -0.9510    2.1880    4.7890 c         1 MOL      0.724874
      3 O1         -0.1750    2.6570    3.9570 o         1 MOL     -0.577837
      4 H1          0.4800    1.9510    6.4180 hc        1 MOL      0.071728
      5 H2         -0.6560    3.3030    6.6410 hc        1 MOL      0.071728
      6 H3         -1.2080    1.6280    6.8810 hc        1 MOL      0.071728
      7 N1         -2.1010    1.6030    4.5660 n         1 MOL     -0.568867
      8 C3         -2.7740    1.5510    3.2400 c3        1 MOL      0.036473
      9 C4         -3.1690    2.9020    2.7370 c         1 MOL      0.637956
     10 O2         -3.9120    3.5370    3.4470 o         1 MOL     -0.598466
     11 C5         -3.9410    0.5410    3.1710 c3        1 MOL     -0.148498
     12 C6         -4.6240    0.3620    1.7980 c         1 MOL      0.729197
     13 O3         -5.7390   -0.1490    1.8810 o         1 MOL     -0.637616
     14 O4         -3.9590    0.6620    0.7520 o         1 MOL     -0.637616
     15 H4         -2.5470    1.1610    5.3560 hn        1 MOL      0.328717
     16 H5         -1.9970    1.2820    2.5100 h1        1 MOL      0.026555
     17 H6         -4.6630    0.7440    3.9650 hc        1 MOL      0.032006
     18 H7         -3.5330   -0.4260    3.4610 hc        1 MOL      0.032006
     19 N2         -2.6770    3.3860    1.6190 n         1 MOL     -0.381504
     20 C7         -2.8830    4.7060    1.0370 c3        1 MOL      0.007960
     21 C8         -3.9390    4.7550   -0.0090 c         1 MOL      0.500706
     22 O5         -4.7060    5.7510   -0.0610 o         1 MOL     -0.600826
     23 C9         -1.5600    5.1170    0.3800 c3        1 MOL      0.101819
     24 C10        -0.3890    5.1650    1.3670 c3        1 MOL      0.037427
     25 C11        -1.4150    6.4150   -0.4390 c3        1 MOL     -0.263721
     26 C12         0.9320    5.6830    0.7960 c3        1 MOL     -0.179788
     27 H8         -2.0750    2.7540    1.1150 hn        1 MOL      0.245976
     28 H9         -3.2880    5.2720    1.8750 h1        1 MOL      0.053773
     29 H10        -1.4280    4.3480   -0.3880 hc        1 MOL      0.080350
     30 H11        -0.2550    4.1150    1.6130 hc        1 MOL      0.002077
     31 H12        -0.6030    5.7110    2.2880 hc        1 MOL      0.002077
     32 H13        -2.3420    6.7150   -0.9280 hc        1 MOL      0.053458
     33 H14        -1.1740    7.2900    0.1690 hc        1 MOL      0.053458
     34 H15        -0.6880    6.2210   -1.2160 hc        1 MOL      0.053458
     35 H16         1.1670    5.0890   -0.0820 hc        1 MOL      0.044671
     36 H17         0.8900    6.7460    0.5810 hc        1 MOL      0.044671
     37 H18         1.7030    5.6640    1.5730 hc        1 MOL      0.044671
     38 N3         -4.1330    3.7070   -0.8640 n         1 MOL     -0.290053
     39 C13        -5.1120    3.7130   -1.9630 c3        1 MOL      0.075579
     40 C14        -6.3400    2.8440   -1.6190 c         1 MOL      0.435316
     41 O6         -7.2080    2.7440   -2.4270 o         1 MOL     -0.485030
     42 C15        -4.5320    3.4150   -3.3350 c3        1 MOL     -0.236139
     43 C16        -3.7840    2.0170   -3.5000 c         1 MOL      0.834338
     44 O7         -3.5450    1.3940   -2.4480 o         1 MOL     -0.720104
     45 O8         -3.4320    1.5570   -4.6040 o         1 MOL     -0.720104
     46 H19        -3.4830    2.9380   -0.7480 hn        1 MOL      0.173126
     47 H20        -5.6150    4.6810   -2.0150 h1        1 MOL      0.080603
     48 H21        -3.6920    4.0650   -3.6070 hc        1 MOL      0.032129
     49 H22        -5.4300    3.5400   -3.9430 hc        1 MOL      0.032129
     50 N4         -6.4940    2.2380   -0.4410 n         1 MOL     -0.220784
     51 C17        -7.7870    1.6810   -0.0270 c3        1 MOL     -0.196163
     52 C18        -8.1710    0.3400   -0.6290 c         1 MOL      0.464459
     53 O9         -9.3140    0.2700   -1.1700 o         1 MOL     -0.587065
     54 H23        -5.6750    2.1580    0.1470 hn        1 MOL      0.165946
     55 H24        -8.5350    2.4000   -0.3560 h1        1 MOL      0.097651
     56 H25        -7.7440    1.6370    1.0580 h1        1 MOL      0.097651
     57 N5         -7.2520   -0.6140   -0.6440 n         1 MOL     -0.113483
     58 C19        -7.3420   -1.9380   -1.1840 c3        1 MOL      0.017322
     59 C20        -7.0920   -3.0610   -0.1630 c         1 MOL      0.369771
     60 O10        -7.1390   -4.2380   -0.4390 o         1 MOL     -0.531270
     61 C21        -6.3940   -2.0650   -2.4150 c3        1 MOL     -0.021578
     62 C22        -4.9320   -1.9920   -2.1010 c         1 MOL      0.693476
     63 O11        -4.0580   -1.7830   -2.9840 o         1 MOL     -0.727495
     64 O12        -4.5180   -2.0890   -0.8970 o         1 MOL     -0.727495
     65 H26        -6.3570   -0.3620   -0.2520 hn        1 MOL      0.036538
     66 H27        -8.3350   -2.0980   -1.6010 h1        1 MOL      0.058004
     67 H28        -6.6400   -1.3350   -3.1870 hc        1 MOL      0.015226
     68 H29        -6.6170   -3.0620   -2.7710 hc        1 MOL      0.015226
     69 N6         -6.7250   -2.6960    1.0350 n         1 MOL     -0.242012
     70 C23        -6.4080   -3.6940    2.1070 c3        1 MOL     -0.071972
     71 C24        -5.0780   -4.4660    2.0070 c         1 MOL      0.582470
     72 O13        -5.0160   -5.4890    2.6720 o         1 MOL     -0.604644
     73 H30        -6.6000   -1.7110    1.2070 hn        1 MOL      0.206741
     74 H31        -7.2560   -4.3800    2.1610 h1        1 MOL      0.053333
     75 H32        -6.3410   -3.1280    3.0310 h1        1 MOL      0.053333
     76 N7         -4.0750   -3.9960    1.2570 n         1 MOL     -0.268629
     77 C25        -2.6940   -4.5520    1.4630 c3        1 MOL     -0.039354
     78 C26        -1.6830   -3.3910    1.4850 c         1 MOL      0.542420
     79 O14        -1.9880   -2.2810    1.0430 o         1 MOL     -0.645481
     80 C27        -2.5290   -5.6120    0.4090 c3        1 MOL     -0.106759
     81 C28        -2.6160   -5.0980   -1.0000 c3        1 MOL     -0.205366
     82 C29        -1.5020   -4.3080   -1.5340 c         1 MOL      0.530910
     83 N8         -0.3970   -4.9320   -1.8820 n         1 MOL     -0.679673
     84 O15        -1.6080   -3.0840   -1.6930 o         1 MOL     -0.487148
     85 H33        -4.1380   -3.2430    0.5830 hn        1 MOL      0.274336
     86 H34        -2.7180   -5.0440    2.4350 h1        1 MOL      0.066056
     87 H35        -3.2890   -6.4030    0.4280 hc        1 MOL      0.042341
     88 H36        -1.5440   -6.0780    0.4870 hc        1 MOL      0.042341
     89 H37        -3.5390   -4.5430   -1.1860 hc        1 MOL      0.090510
     90 H38        -2.6540   -5.9210   -1.7120 hc        1 MOL      0.090510
     91 H39        -0.3470   -5.9300   -1.8490 hn        1 MOL      0.326747
     92 H40         0.3500   -4.3870   -2.2900 hn        1 MOL      0.326747
     93 N9         -0.4360   -3.5690    1.9790 n         1 MOL     -0.416488
     94 C30         0.6460   -2.5030    2.0020 c3        1 MOL      0.258842
     95 C31         1.8320   -3.0360    1.1430 c         1 MOL      0.192510
     96 O16         2.5070   -4.0140    1.5310 o         1 MOL     -0.544130
     97 C32         1.1210   -2.1450    3.3790 c3        1 MOL      0.210918
     98 C33         1.9790   -0.8970    3.2540 c3        1 MOL     -0.210084
     99 C34        -0.0390   -1.8450    4.2960 c3        1 MOL     -0.210084
    100 H41        -0.2130   -4.4310    2.4490 hn        1 MOL      0.255722
    101 H42         0.3130   -1.5730    1.5360 h1        1 MOL      0.061303
    102 H43         1.7110   -2.9740    3.7540 hc        1 MOL     -0.039536
    103 H44         1.4090    0.0090    3.0340 hc        1 MOL      0.032138
    104 H45         2.4800   -0.7760    4.2120 hc        1 MOL      0.032138
    105 H46         2.7730   -1.0040    2.5140 hc        1 MOL      0.032138
    106 H47         0.4060   -1.5650    5.2590 hc        1 MOL      0.032138
    107 H48        -0.6770   -1.0200    3.9530 hc        1 MOL      0.032138
    108 H49        -0.5900   -2.7490    4.5250 hc        1 MOL      0.032138
    109 N10         2.1110   -2.3440    0.0270 n         1 MOL     -0.006458
    110 C35         3.3040   -2.5180   -0.8260 c3        1 MOL      0.081864
    111 C36         4.5650   -1.8310   -0.2570 c         1 MOL      0.401093
    112 O17         4.5490   -1.0590    0.7310 o         1 MOL     -0.355584
    113 C37         3.1190   -1.9670   -2.3150 c3        1 MOL     -0.411396
    114 C38         1.8570   -2.5680   -3.0270 c         1 MOL      0.845633
    115 N11         0.7600   -1.8550   -3.2090 n         1 MOL     -0.886079
    116 O18         1.8160   -3.7130   -3.3110 o         1 MOL     -0.623633
    117 H50         1.5080   -1.5520   -0.1310 hn        1 MOL      0.107854
    118 H51         3.5330   -3.5820   -0.8720 h1        1 MOL      0.068529
    119 H52         3.9260   -2.2880   -2.9810 hc        1 MOL      0.069849
    120 H53         3.0920   -0.8730   -2.3130 hc        1 MOL      0.069849
    121 H54         0.5930   -0.9670   -2.7670 hn        1 MOL      0.394308
    122 H55         0.0380   -2.2300   -3.8140 hn        1 MOL      0.394308
    123 N12         5.7420   -2.1670   -0.8250 n         1 MOL     -0.508612
    124 C39         6.9960   -1.6830   -0.2740 c3        1 MOL      0.201947
    125 C40         7.0550   -0.0760   -0.3680 c         1 MOL      0.561267
    126 O19         7.3980    0.5950    0.5770 o         1 MOL     -0.494778
    127 C41         8.2310   -2.4500   -0.7480 c3        1 MOL     -0.230062
    128 C42         9.6380   -1.8800   -0.3130 ca        1 MOL      0.029919
    129 C43        10.1010   -2.1900    0.9760 ca        1 MOL     -0.185919
    130 C44        10.3020   -0.9440   -1.1060 ca        1 MOL     -0.185919
    131 C45        11.2870   -1.5640    1.4630 ca        1 MOL     -0.232777
    132 C46        11.4950   -0.3260   -0.6060 ca        1 MOL     -0.232777
    133 C47        12.0030   -0.6570    0.6540 ca        1 MOL      0.314640
    134 O20        13.0880   -0.0410    1.1240 oh        1 MOL     -0.478576
    135 H56         5.6920   -2.9140   -1.5020 hn        1 MOL      0.298971
    136 H57         6.9300   -1.9810    0.7760 h1        1 MOL      0.061361
    137 H58         8.2280   -2.4570   -1.8340 hc        1 MOL      0.076680
    138 H59         8.2170   -3.4640   -0.3480 hc        1 MOL      0.076680
    139 H60         9.5950   -2.9130    1.6060 ha        1 MOL      0.149961
    140 H61         9.8610   -0.7350   -2.0740 ha        1 MOL      0.149961
    141 H62        11.6030   -1.7510    2.4770 ha        1 MOL      0.141557
    142 H63        11.9470    0.4420   -1.2160 ha        1 MOL      0.141557
    143 H64        13.4070    0.5330    0.4300 ho        1 MOL      0.354252
    144 N13         6.4650    0.4910   -1.4140 n         1 MOL     -0.437693
    145 C48         6.3670    1.9530   -1.4900 c3        1 MOL      0.027809
    146 C49         5.3520    2.6260   -0.5550 c         1 MOL      0.243765
    147 O21         5.3280    3.8500   -0.4340 o         1 MOL     -0.497511
    148 C50         6.0370    2.3000   -2.9220 c3        1 MOL     -0.029064
    149 C51         4.6090    2.0220   -3.3520 c3        1 MOL     -0.031979
    150 C52         4.2980    1.9620   -4.8320 c         1 MOL      0.637778
    151 O22         3.0920    2.0800   -5.1540 o         1 MOL     -0.721724
    152 O23         5.2530    1.9520   -5.6500 o         1 MOL     -0.721724
    153 H65         6.2480   -0.0200   -2.2530 hn        1 MOL      0.308444
    154 H66         7.3720    2.3210   -1.2990 h1        1 MOL      0.073436
    155 H67         6.6350    1.6520   -3.5590 hc        1 MOL     -0.003885
    156 H68         6.2990    3.3270   -3.1710 hc        1 MOL     -0.003885
    157 H69         3.9270    2.7160   -2.8640 hc        1 MOL      0.026836
    158 H70         4.2830    1.1040   -2.8620 hc        1 MOL      0.026836
    159 N14         4.5260    1.7830    0.0560 n         1 MOL      0.033509
    160 C53         3.5290    2.2140    0.9960 c3        1 MOL     -0.022191
    161 C54         4.1410    2.0820    2.4330 c         1 MOL      0.427355
    162 O24         3.7510    2.8030    3.3240 o         1 MOL     -0.531179
    163 C55         2.2030    1.4380    0.7510 c3        1 MOL      0.067082
    164 C56         1.5600    1.6140   -0.6510 c3        1 MOL      0.019643
    165 C57         0.2740    0.8940   -0.7740 c         1 MOL      0.656943
    166 O25        -0.8210    1.4820   -0.7930 o         1 MOL     -0.744189
    167 O26         0.2070   -0.3770   -0.7160 o         1 MOL     -0.744189
    168 H71         4.7380    0.8150   -0.1320 hn        1 MOL      0.030322
    169 H72         3.3180    3.2660    0.8380 h1        1 MOL      0.050969
    170 H73         1.4560    1.7770    1.4680 hc        1 MOL      0.059584
    171 H74         2.4540    0.3790    0.8380 hc        1 MOL      0.059584
    172 H75         2.2030    1.3230   -1.4750 hc        1 MOL     -0.003152
    173 H76         1.3350    2.6640   -0.8390 hc        1 MOL     -0.003152
    174 N15         5.1720    1.2430    2.6000 n         1 MOL     -0.122586
    175 C58         5.6520    0.9360    3.9420 c3        1 MOL     -0.170809
    176 H77         6.7250    0.7460    3.9100 h1        1 MOL      0.073396
    177 H78         5.4510    1.7800    4.6020 h1        1 MOL      0.073396
    178 H79         5.1390    0.0510    4.3180 h1        1 MOL      0.073396
    179 H80         5.4710    0.6710    1.8180 hn        1 MOL      0.058928
    180 Ca1        -2.5180   -0.5510   -1.1740 Ca        1 MOL      1.732543
    181 O27        -1.3870   -0.1530   -3.6690 oh        1 MOL     -0.855169
    182 H81        -0.6230   -0.0130   -4.2340 ho        1 MOL      0.410989
    183 H82        -2.0930    0.3150   -4.1160 ho        1 MOL      0.410989
@<TRIPOS>BOND
     1    1    2 1   
     2    1    4 1   
     3    1    5 1   
     4    1    6 1   
     5    2    3 2   
     6    2    7 1   
     7    7    8 1   
     8    7   15 1   
     9    8    9 1   
    10    8   11 1   
    11    8   16 1   
    12    9   10 2   
    13    9   19 1   
    14   11   12 1   
    15   11   17 1   
    16   11   18 1   
    17   12   13 1   
    18   12   14 1   
    19   19   20 1   
    20   19   27 1   
    21   20   21 1   
    22   20   23 1   
    23   20   28 1   
    24   21   22 2   
    25   21   38 1   
    26   23   24 1   
    27   23   25 1   
    28   23   29 1   
    29   24   26 1   
    30   24   30 1   
    31   24   31 1   
    32   25   32 1   
    33   25   33 1   
    34   25   34 1   
    35   26   35 1   
    36   26   36 1   
    37   26   37 1   
    38   38   39 1   
    39   38   46 1   
    40   39   40 1   
    41   39   42 1   
    42   39   47 1   
    43   40   41 2   
    44   40   50 1   
    45   42   43 1   
    46   42   48 1   
    47   42   49 1   
    48   43   44 1   
    49   43   45 1   
    50   50   51 1   
    51   50   54 1   
    52   51   52 1   
    53   51   55 1   
    54   51   56 1   
    55   52   53 2   
    56   52   57 1   
    57   57   58 1   
    58   57   65 1   
    59   58   59 1   
    60   58   61 1   
    61   58   66 1   
    62   59   60 2   
    63   59   69 1   
    64   61   62 1   
    65   61   67 1   
    66   61   68 1   
    67   62   63 1   
    68   62   64 1   
    69   69   70 1   
    70   69   73 1   
    71   70   71 1   
    72   70   74 1   
    73   70   75 1   
    74   71   72 2   
    75   71   76 1   
    76   76   77 1   
    77   76   85 1   
    78   77   78 1   
    79   77   80 1   
    80   77   86 1   
    81   78   79 2   
    82   78   93 1   
    83   80   81 1   
    84   80   87 1   
    85   80   88 1   
    86   81   82 1   
    87   81   89 1   
    88   81   90 1   
    89   82   83 1   
    90   82   84 2   
    91   83   91 1   
    92   83   92 1   
    93   93   94 1   
    94   93  100 1   
    95   94   95 1   
    96   94   97 1   
    97   94  101 1   
    98   95   96 2   
    99   95  109 1   
   100   97   98 1   
   101   97   99 1   
   102   97  102 1   
   103   98  103 1   
   104   98  104 1   
   105   98  105 1   
   106   99  106 1   
   107   99  107 1   
   108   99  108 1   
   109  109  110 1   
   110  109  117 1   
   111  110  111 1   
   112  110  113 1   
   113  110  118 1   
   114  111  112 2   
   115  111  123 1   
   116  113  114 1   
   117  113  119 1   
   118  113  120 1   
   119  114  115 1   
   120  114  116 2   
   121  115  121 1   
   122  115  122 1   
   123  123  124 1   
   124  123  135 1   
   125  124  125 1   
   126  124  127 1   
   127  124  136 1   
   128  125  126 2   
   129  125  144 1   
   130  127  128 1   
   131  127  137 1   
   132  127  138 1   
   133  128  129 ar  
   134  128  130 ar  
   135  129  131 ar  
   136  129  139 1   
   137  130  132 ar  
   138  130  140 1   
   139  131  133 ar  
   140  131  141 1   
   141  132  133 ar  
   142  132  142 1   
   143  133  134 1   
   144  134  143 1   
   145  144  145 1   
   146  144  153 1   
   147  145  146 1   
   148  145  148 1   
   149  145  154 1   
   150  146  147 2   
   151  146  159 1   
   152  148  149 1   
   153  148  155 1   
   154  148  156 1   
   155  149  150 1   
   156  149  157 1   
   157  149  158 1   
   158  150  151 1   
   159  150  152 1   
   160  159  160 1   
   161  159  168 1   
   162  160  161 1   
   163  160  163 1   
   164  160  169 1   
   165  161  162 2   
   166  161  174 1   
   167  163  164 1   
   168  163  170 1   
   169  163  171 1   
   170  164  165 1   
   171  164  172 1   
   172  164  173 1   
   173  165  166 1   
   174  165  167 1   
   175  174  175 1   
   176  174  179 1   
   177  175  176 1   
   178  175  177 1   
   179  175  178 1   
   180  181  182 1   
   181  181  183 1   
@<TRIPOS>SUBSTRUCTURE
     1 MOL         1 TEMP              0 ****  ****    0 ROOT
