@<TRIPOS>MOLECULE
MOL
  189   185     1     0     0
SMALL
resp


@<TRIPOS>ATOM
      1 C1         -0.1590    1.3670    6.1930 c3        1 MOL     -0.267159
      2 C2         -0.5730    1.3670    4.6920 c         1 MOL      0.632247
      3 O1          0.0820    1.9760    3.9120 o         1 MOL     -0.573768
      4 H1         -1.0090    1.6710    6.8040 hc        1 MOL      0.074601
      5 H2          0.1560    0.3650    6.4840 hc        1 MOL      0.074601
      6 H3          0.6650    2.0660    6.3430 hc        1 MOL      0.074601
      7 N1         -1.7640    0.7810    4.3940 n         1 MOL     -0.756274
      8 C3         -2.3530    0.8500    3.0500 c3        1 MOL      0.533715
      9 C4         -2.9040    2.2470    2.5460 c         1 MOL      0.407497
     10 O2         -4.0630    2.5880    2.7770 o         1 MOL     -0.510541
     11 C5         -3.2880   -0.3100    2.9130 c3        1 MOL     -0.374053
     12 C6         -4.0860   -0.3400    1.5670 c         1 MOL      0.566381
     13 O3         -3.6770    0.2710    0.5480 o         1 MOL     -0.543442
     14 O4         -5.1660   -0.9960    1.5480 o         1 MOL     -0.543442
     15 H4         -2.2340    0.4210    5.2240 hn        1 MOL      0.358373
     16 H5         -1.5740    0.5750    2.3390 h1        1 MOL     -0.140281
     17 H6         -3.9440   -0.3550    3.7890 hc        1 MOL      0.086770
     18 H7         -2.6660   -1.2040    2.9880 hc        1 MOL      0.086770
     19 N2         -1.9950    3.0750    2.0800 n         1 MOL     -0.180305
     20 C7         -2.2450    4.5300    2.1290 c3        1 MOL     -0.348232
     21 C8         -3.2220    5.1560    1.1690 c         1 MOL      0.632139
     22 O5         -3.6270    6.3140    1.2680 o         1 MOL     -0.568801
     23 C9         -0.8320    5.2060    2.1470 c3        1 MOL     -0.131808
     24 C10         0.2120    4.9750    0.9840 c3        1 MOL     -0.044951
     25 C11        -0.3620    5.0230   -0.4310 c3        1 MOL     -0.019345
     26 C12         0.6870    4.9000   -1.4550 c3        1 MOL     -0.010746
     27 N3          0.0390    5.2170   -2.7850 n4        1 MOL     -0.295120
     28 H8         -1.1340    2.7140    1.6890 hn        1 MOL      0.485265
     29 H9         -2.7080    4.7850    3.0810 h1        1 MOL      0.178410
     30 H10        -0.2470    4.9640    3.0280 hc        1 MOL      0.077560
     31 H11        -0.9720    6.2800    2.2350 hc        1 MOL      0.077560
     32 H12         0.5800    3.9810    1.2440 hc        1 MOL      0.038134
     33 H13         0.9750    5.7290    1.1620 hc        1 MOL      0.038134
     34 H14        -0.8070    6.0200   -0.5220 hc        1 MOL      0.038452
     35 H15        -1.1380    4.2870   -0.6050 hc        1 MOL      0.038452
     36 H16         1.1040    3.8940   -1.4710 hx        1 MOL      0.066002
     37 H17         1.5650    5.5140   -1.2230 hx        1 MOL      0.066002
     38 H18        -0.2410    6.1830   -2.8700 hn        1 MOL      0.286821
     39 H19         0.5950    5.0590   -3.6180 hn        1 MOL      0.286821
     40 H20        -0.7740    4.6680   -3.0360 hn        1 MOL      0.286821
     41 N4         -3.6090    4.2780    0.2210 n         1 MOL     -0.263612
     42 C13        -4.5170    4.6210   -0.8860 c3        1 MOL      0.100098
     43 C14        -5.7390    3.6140   -0.8360 c         1 MOL      0.333806
     44 O6         -6.7880    3.9050   -1.5140 o         1 MOL     -0.518531
     45 C15        -3.8350    4.5810   -2.2870 c3        1 MOL     -0.271811
     46 C16        -3.0230    3.3800   -2.5120 c         1 MOL      0.998789
     47 O7         -2.2080    3.5390   -3.4710 o         1 MOL     -0.790519
     48 O8         -2.8600    2.4640   -1.6330 o         1 MOL     -0.790519
     49 H21        -3.1910    3.3660    0.1770 hn        1 MOL     -0.068155
     50 H22        -4.8800    5.6420   -0.7740 h1        1 MOL      0.095320
     51 H23        -3.0590    5.3490   -2.1640 hc        1 MOL      0.062093
     52 H24        -4.5360    4.7540   -3.1060 hc        1 MOL      0.062093
     53 N5         -5.7320    2.5830    0.0220 n         1 MOL      0.008385
     54 C17        -7.0330    1.9690    0.4280 c3        1 MOL     -0.235939
     55 C18        -7.5230    0.8860   -0.5320 c         1 MOL      0.653112
     56 O9         -8.6930    0.8680   -0.9670 o         1 MOL     -0.582722
     57 H25        -4.9060    2.3120    0.5370 hn        1 MOL      0.120934
     58 H26        -7.7550    2.7570    0.6680 h1        1 MOL      0.108332
     59 H27        -6.8940    1.4520    1.3750 h1        1 MOL      0.108332
     60 N6         -6.6580   -0.1090   -0.7780 n         1 MOL     -0.340655
     61 C19        -7.0430   -1.2180   -1.7450 c3        1 MOL     -0.030631
     62 C20        -6.9360   -2.6240   -1.2960 c         1 MOL      0.425576
     63 O10        -7.2680   -3.6160   -1.9040 o         1 MOL     -0.546169
     64 C21        -6.2020   -0.9480   -2.9930 c3        1 MOL     -0.236822
     65 C22        -4.6900   -0.9950   -2.7070 c         1 MOL      0.850641
     66 O11        -3.9570   -0.3190   -3.4430 o         1 MOL     -0.757373
     67 O12        -4.2430   -1.6300   -1.7650 o         1 MOL     -0.757373
     68 H28        -5.8120   -0.1000   -0.2190 hn        1 MOL      0.072393
     69 H29        -8.0600   -0.9930   -2.0670 h1        1 MOL      0.137061
     70 H30        -6.4770    0.0070   -3.4380 hc        1 MOL      0.076762
     71 H31        -6.3610   -1.7570   -3.7070 hc        1 MOL      0.076762
     72 N7         -6.4610   -2.7780   -0.0320 n         1 MOL     -0.113458
     73 C23        -6.3440   -3.9620    0.8170 c3        1 MOL     -0.302790
     74 C24        -4.9890   -4.6700    0.7680 c         1 MOL      0.599871
     75 O13        -4.8660   -5.7640    1.2230 o         1 MOL     -0.572905
     76 H32        -6.1590   -1.8870    0.3300 hn        1 MOL      0.157624
     77 H33        -7.1550   -4.6380    0.5400 h1        1 MOL      0.132563
     78 H34        -6.5060   -3.5890    1.8270 h1        1 MOL      0.132563
     79 N8         -4.0200   -4.1620    0.0080 n         1 MOL     -0.173071
     80 C25        -2.6530   -4.7330   -0.1390 c3        1 MOL     -0.248464
     81 C26        -1.5480   -3.7180    0.0780 c         1 MOL      0.853961
     82 O14        -1.7590   -2.4750    0.1440 o         1 MOL     -0.721425
     83 C27        -2.5060   -5.2370   -1.6160 c3        1 MOL      0.345076
     84 C28        -3.4760   -6.4160   -1.8930 c3        1 MOL     -0.442722
     85 O15        -2.8140   -4.1980   -2.5060 oh        1 MOL     -0.603243
     86 H35        -4.2060   -3.2160   -0.3000 hn        1 MOL      0.169543
     87 H36        -2.4500   -5.5660    0.5310 h1        1 MOL      0.106135
     88 H37        -1.5190   -5.6350   -1.8190 h1        1 MOL      0.043988
     89 H38        -3.7290   -3.9340   -2.4070 ho        1 MOL      0.425772
     90 H39        -4.5190   -6.1810   -1.6980 hc        1 MOL      0.120340
     91 H40        -3.3420   -6.7040   -2.9330 hc        1 MOL      0.120340
     92 H41        -3.2970   -7.3080   -1.2930 hc        1 MOL      0.120340
     93 N9         -0.3050   -4.1700    0.3030 n         1 MOL     -0.709356
     94 C29         0.8620   -3.4220    0.7610 c3        1 MOL      0.341547
     95 C30         2.0460   -3.5400   -0.2370 c         1 MOL      0.353166
     96 O16         2.5850   -4.6160   -0.4290 o         1 MOL     -0.531767
     97 C31         1.2740   -3.9440    2.1740 c3        1 MOL     -0.062808
     98 C32         0.2140   -3.8240    3.2620 c3        1 MOL     -0.100753
     99 C33         2.6530   -3.4860    2.6420 c3        1 MOL      0.010383
    100 C34         0.0260   -2.3990    3.6930 c3        1 MOL      0.204378
    101 H42        -0.2270   -5.1460    0.5490 hn        1 MOL      0.304906
    102 H43         0.5600   -2.3830    0.8800 h1        1 MOL      0.131059
    103 H44         1.3190   -5.0100    1.9630 hc        1 MOL      0.012389
    104 H45         0.4400   -4.3640    4.1800 hc        1 MOL      0.022202
    105 H46        -0.7780   -4.0980    2.9080 hc        1 MOL      0.022202
    106 H47         2.8330   -3.8140    3.6610 hc        1 MOL     -0.011115
    107 H48         3.4660   -3.9090    2.0530 hc        1 MOL     -0.011115
    108 H49         2.6980   -2.3950    2.6680 hc        1 MOL     -0.011115
    109 H50        -0.1530   -1.7490    2.8330 hc        1 MOL     -0.039550
    110 H51        -0.8840   -2.3690    4.2990 hc        1 MOL     -0.039550
    111 H52         0.8390   -2.0970    4.3520 hc        1 MOL     -0.039550
    112 N10         2.4830   -2.4110   -0.7610 n         1 MOL     -0.151433
    113 C35         3.7310   -2.2820   -1.5800 c3        1 MOL      0.005101
    114 C36         4.9080   -2.1330   -0.6510 c         1 MOL      0.327370
    115 O17         4.7140   -1.9580    0.5390 o         1 MOL     -0.266812
    116 C37         3.5600   -1.0790   -2.6130 c3        1 MOL      0.372996
    117 C38         2.7250   -1.7030   -3.7380 c3        1 MOL     -0.166516
    118 O18         3.1420    0.1770   -2.1480 oh        1 MOL     -0.667657
    119 H53         1.9610   -1.6160   -0.4110 hn        1 MOL     -0.016705
    120 H54         3.8120   -3.1980   -2.1650 h1        1 MOL      0.066853
    121 H55         4.5180   -0.9140   -3.1070 h1        1 MOL     -0.021917
    122 H56         2.1820    0.2100   -2.2060 ho        1 MOL      0.472014
    123 H57         1.8160   -2.2520   -3.4980 hc        1 MOL      0.040548
    124 H58         2.3440   -0.8710   -4.3220 hc        1 MOL      0.040548
    125 H59         3.3720   -2.3070   -4.3760 hc        1 MOL      0.040548
    126 N11         6.1420   -2.1140   -1.1170 n         1 MOL     -0.354658
    127 C39         7.4570   -1.8020   -0.3980 c3        1 MOL     -0.122196
    128 C40         7.5390   -0.4460    0.2790 c         1 MOL      0.041620
    129 O19         8.1510   -0.3120    1.3580 o         1 MOL     -0.420431
    130 C41         8.6530   -1.8100   -1.4110 c3        1 MOL      0.407619
    131 C42         9.0430   -3.1840   -1.9040 c3        1 MOL     -0.467467
    132 O20         8.3290   -1.0300   -2.5620 oh        1 MOL     -0.611989
    133 H60         6.2050   -2.3170   -2.1060 hn        1 MOL      0.263422
    134 H61         7.5920   -2.5760    0.3540 h1        1 MOL      0.179852
    135 H62         9.5820   -1.4190   -0.9790 h1        1 MOL      0.055294
    136 H63         9.1380   -0.5330   -2.7410 ho        1 MOL      0.306812
    137 H64         8.2830   -3.4690   -2.6340 hc        1 MOL      0.131801
    138 H65         9.9940   -3.1280   -2.4330 hc        1 MOL      0.131801
    139 H66         9.0900   -3.8860   -1.0690 hc        1 MOL      0.131801
    140 N12         7.0530    0.5640   -0.3530 n         1 MOL      0.092835
    141 C43         6.7660    1.8190    0.3920 c3        1 MOL     -0.053092
    142 C44         5.8560    1.7070    1.5960 c         1 MOL      0.425438
    143 O21         6.1780    2.2590    2.6630 o         1 MOL     -0.463803
    144 C45         6.2100    2.8140   -0.6190 c3        1 MOL     -0.095167
    145 C46         7.3420    3.4150   -1.5440 c3        1 MOL     -0.015280
    146 C47         7.7240    2.4250   -2.6170 c3        1 MOL     -0.102483
    147 C48         8.6030    3.1230   -3.7810 c3        1 MOL      0.079564
    148 N13         9.1250    2.1210   -4.7140 n4        1 MOL     -0.239273
    149 H67         6.7530    0.4280   -1.3050 hn        1 MOL      0.157206
    150 H68         7.7310    2.2020    0.7090 h1        1 MOL      0.081703
    151 H69         5.7910    3.6980   -0.1320 hc        1 MOL      0.063968
    152 H70         5.4190    2.3860   -1.2280 hc        1 MOL      0.063968
    153 H71         8.2370    3.7830   -1.0490 hc        1 MOL      0.041382
    154 H72         6.9280    4.3330   -1.9490 hc        1 MOL      0.041382
    155 H73         6.8540    1.9680   -3.0970 hc        1 MOL      0.033846
    156 H74         8.4110    1.7480   -2.1160 hc        1 MOL      0.033846
    157 H75         9.4440    3.6420   -3.3240 hx        1 MOL      0.062426
    158 H76         8.0380    3.9440   -4.2200 hx        1 MOL      0.062426
    159 H77         9.6830    2.5090   -5.4660 hn        1 MOL      0.271620
    160 H78         9.7110    1.5120   -4.1570 hn        1 MOL      0.271620
    161 H79         8.4590    1.4550   -5.0650 hn        1 MOL      0.271620
    162 N14         4.6920    1.0070    1.4480 n         1 MOL     -0.336453
    163 C49         3.7230    0.7090    2.5210 c3        1 MOL     -0.151942
    164 C50         4.3620   -0.2120    3.5550 c         1 MOL      0.435701
    165 O22         4.3550    0.0350    4.7530 o         1 MOL     -0.541881
    166 C51         2.4190    0.1320    1.8820 c3        1 MOL      0.127108
    167 C52         1.7520    1.1070    0.8690 c3        1 MOL      0.097311
    168 C53         0.4780    0.5680    0.2190 c         1 MOL      0.726042
    169 O23        -0.5870    1.2150    0.2200 o         1 MOL     -0.719887
    170 O24         0.5490   -0.4010   -0.5510 o         1 MOL     -0.719887
    171 H80         4.6530    0.5280    0.5590 hn        1 MOL      0.207662
    172 H81         3.5590    1.7040    2.9360 h1        1 MOL      0.154065
    173 H82         1.7370   -0.0590    2.7080 hc        1 MOL      0.011198
    174 H83         2.6770   -0.7890    1.3600 hc        1 MOL      0.011198
    175 H84         2.4230    1.3400    0.0410 hc        1 MOL     -0.096773
    176 H85         1.4310    1.9400    1.5090 hc        1 MOL     -0.096773
    177 N15         5.1390   -1.2350    3.1950 n         1 MOL      0.020167
    178 C54         5.9640   -2.0510    4.1480 c3        1 MOL     -0.238170
    179 H86         6.9770   -2.1510    3.7580 h1        1 MOL      0.090088
    180 H87         5.9970   -1.5550    5.1180 h1        1 MOL      0.090088
    181 H88         5.5190   -3.0400    4.2600 h1        1 MOL      0.090088
    182 H89         5.1120   -1.5960    2.2450 hn        1 MOL      0.090964
    183 Ca1        -1.9720   -0.2040   -1.2860 Ca        1 MOL      1.797972
    184 O25        -1.2250   -2.1350   -2.9100 oh        1 MOL     -0.901120
    185 H90        -0.9390   -2.0470   -3.8210 ho        1 MOL      0.410319
    186 H91        -1.7550   -2.9400   -2.9010 ho        1 MOL      0.410319
    187 O26        -0.6180    1.4150   -3.0340 oh        1 MOL     -0.901120
    188 H92        -0.0030    1.7300   -3.6850 ho        1 MOL      0.410319
    189 H93        -1.2790    2.1070   -2.9690 ho        1 MOL      0.410319
@<TRIPOS>BOND
     1    1    2 1   
     2    1    4 1   
     3    1    5 1   
     4    1    6 1   
     5    2    3 2   
     6    2    7 1   
     7    7    8 1   
     8    7   15 1   
     9    8    9 1   
    10    8   11 1   
    11    8   16 1   
    12    9   10 2   
    13    9   19 1   
    14   11   12 1   
    15   11   17 1   
    16   11   18 1   
    17   12   13 1   
    18   12   14 1   
    19   19   20 1   
    20   19   28 1   
    21   20   21 1   
    22   20   23 1   
    23   20   29 1   
    24   21   22 2   
    25   21   41 1   
    26   23   24 1   
    27   23   30 1   
    28   23   31 1   
    29   24   25 1   
    30   24   32 1   
    31   24   33 1   
    32   25   26 1   
    33   25   34 1   
    34   25   35 1   
    35   26   27 1   
    36   26   36 1   
    37   26   37 1   
    38   27   38 1   
    39   27   39 1   
    40   27   40 1   
    41   41   42 1   
    42   41   49 1   
    43   42   43 1   
    44   42   45 1   
    45   42   50 1   
    46   43   44 2   
    47   43   53 1   
    48   45   46 1   
    49   45   51 1   
    50   45   52 1   
    51   46   47 1   
    52   46   48 1   
    53   53   54 1   
    54   53   57 1   
    55   54   55 1   
    56   54   58 1   
    57   54   59 1   
    58   55   56 2   
    59   55   60 1   
    60   60   61 1   
    61   60   68 1   
    62   61   62 1   
    63   61   64 1   
    64   61   69 1   
    65   62   63 2   
    66   62   72 1   
    67   64   65 1   
    68   64   70 1   
    69   64   71 1   
    70   65   66 1   
    71   65   67 1   
    72   72   73 1   
    73   72   76 1   
    74   73   74 1   
    75   73   77 1   
    76   73   78 1   
    77   74   75 2   
    78   74   79 1   
    79   79   80 1   
    80   79   86 1   
    81   80   81 1   
    82   80   83 1   
    83   80   87 1   
    84   81   82 2   
    85   81   93 1   
    86   83   84 1   
    87   83   85 1   
    88   83   88 1   
    89   84   90 1   
    90   84   91 1   
    91   84   92 1   
    92   85   89 1   
    93   93   94 1   
    94   93  101 1   
    95   94   95 1   
    96   94   97 1   
    97   94  102 1   
    98   95   96 2   
    99   95  112 1   
   100   97   98 1   
   101   97   99 1   
   102   97  103 1   
   103   98  100 1   
   104   98  104 1   
   105   98  105 1   
   106   99  106 1   
   107   99  107 1   
   108   99  108 1   
   109  100  109 1   
   110  100  110 1   
   111  100  111 1   
   112  112  113 1   
   113  112  119 1   
   114  113  114 1   
   115  113  116 1   
   116  113  120 1   
   117  114  115 2   
   118  114  126 1   
   119  116  117 1   
   120  116  118 1   
   121  116  121 1   
   122  117  123 1   
   123  117  124 1   
   124  117  125 1   
   125  118  122 1   
   126  126  127 1   
   127  126  133 1   
   128  127  128 1   
   129  127  130 1   
   130  127  134 1   
   131  128  129 2   
   132  128  140 1   
   133  130  131 1   
   134  130  132 1   
   135  130  135 1   
   136  131  137 1   
   137  131  138 1   
   138  131  139 1   
   139  132  136 1   
   140  140  141 1   
   141  140  149 1   
   142  141  142 1   
   143  141  144 1   
   144  141  150 1   
   145  142  143 2   
   146  142  162 1   
   147  144  145 1   
   148  144  151 1   
   149  144  152 1   
   150  145  146 1   
   151  145  153 1   
   152  145  154 1   
   153  146  147 1   
   154  146  155 1   
   155  146  156 1   
   156  147  148 1   
   157  147  157 1   
   158  147  158 1   
   159  148  159 1   
   160  148  160 1   
   161  148  161 1   
   162  162  163 1   
   163  162  171 1   
   164  163  164 1   
   165  163  166 1   
   166  163  172 1   
   167  164  165 2   
   168  164  177 1   
   169  166  167 1   
   170  166  173 1   
   171  166  174 1   
   172  167  168 1   
   173  167  175 1   
   174  167  176 1   
   175  168  169 1   
   176  168  170 1   
   177  177  178 1   
   178  177  182 1   
   179  178  179 1   
   180  178  180 1   
   181  178  181 1   
   182  184  185 1   
   183  184  186 1   
   184  187  188 1   
   185  187  189 1   
@<TRIPOS>SUBSTRUCTURE
     1 MOL         1 TEMP              0 ****  ****    0 ROOT
