@<TRIPOS>MOLECULE
MOL
  189   185     1     0     0
SMALL
resp


@<TRIPOS>ATOM
      1 C1          0.2780    3.3600   -4.8030 c3        1 MOL     -0.409281
      2 C2          0.8130    2.9220   -3.4290 c         1 MOL      0.656565
      3 O1          0.2350    3.0990   -2.3470 o         1 MOL     -0.595125
      4 H1         -0.3700    2.5800   -5.2050 hc        1 MOL      0.103754
      5 H2         -0.2900    4.2840   -4.6940 hc        1 MOL      0.103754
      6 H3          1.1140    3.5240   -5.4830 hc        1 MOL      0.103754
      7 N1          2.0000    2.2950   -3.4500 n         1 MOL     -0.540464
      8 C3          2.6430    1.9010   -2.2080 c3        1 MOL      0.287982
      9 C4          3.3790    3.0940   -1.5340 c         1 MOL      0.286528
     10 O2          4.4690    3.4860   -1.9790 o         1 MOL     -0.501639
     11 C5          3.5010    0.6300   -2.5180 c3        1 MOL     -0.406812
     12 C6          4.3650    0.2800   -1.2870 c         1 MOL      0.852287
     13 O3          3.8960    0.4850   -0.1080 o         1 MOL     -0.700462
     14 O4          5.4450   -0.3080   -1.4830 o         1 MOL     -0.700462
     15 H4          2.5120    2.2740   -4.3240 hn        1 MOL      0.317122
     16 H5          1.9120    1.5740   -1.4600 h1        1 MOL      0.024436
     17 H6          4.1800    0.9370   -3.3200 hc        1 MOL      0.087890
     18 H7          2.8420   -0.2070   -2.7290 hc        1 MOL      0.087890
     19 N2          2.7290    3.6770   -0.5170 n         1 MOL     -0.110559
     20 C7          3.1750    4.9190    0.0660 c3        1 MOL     -0.010770
     21 C8          4.0500    4.7650    1.3090 c         1 MOL      0.360479
     22 O5          4.8860    5.6610    1.6290 o         1 MOL     -0.563328
     23 C9          1.9380    5.8710    0.3320 c3        1 MOL     -0.046548
     24 C10         1.2980    6.4190   -0.9080 c3        1 MOL      0.093064
     25 C11         0.1010    7.3040   -0.5670 c3        1 MOL     -0.062318
     26 C12        -0.2690    8.1150   -1.7920 c3        1 MOL     -0.105357
     27 N3         -1.0140    7.3590   -2.8280 n4        1 MOL     -0.333249
     28 H8          1.7940    3.3450   -0.3210 hn        1 MOL      0.200756
     29 H9          3.8010    5.4350   -0.6620 h1        1 MOL      0.075398
     30 H10         2.3250    6.6580    0.9810 hc        1 MOL      0.031185
     31 H11         1.2570    5.3780    1.0200 hc        1 MOL      0.031185
     32 H12         1.1070    5.6860   -1.6790 hc        1 MOL     -0.015851
     33 H13         1.9980    7.1050   -1.3930 hc        1 MOL     -0.015851
     34 H14         0.2870    7.9790    0.2700 hc        1 MOL      0.065594
     35 H15        -0.7040    6.6640   -0.2170 hc        1 MOL      0.065594
     36 H16         0.6640    8.5060   -2.2030 hx        1 MOL      0.120340
     37 H17        -0.8590    8.9540   -1.4270 hx        1 MOL      0.120340
     38 H18        -0.3780    6.8080   -3.3830 hn        1 MOL      0.328314
     39 H19        -1.6570    6.7020   -2.4010 hn        1 MOL      0.328314
     40 H20        -1.5150    7.9540   -3.4690 hn        1 MOL      0.328314
     41 N4          3.9600    3.6800    2.0470 n         1 MOL     -0.128060
     42 C13         4.8130    3.2260    3.1090 c3        1 MOL      0.028605
     43 C14         5.9380    2.2610    2.6680 c         1 MOL      0.445589
     44 O6          6.8200    1.9200    3.4390 o         1 MOL     -0.535929
     45 C15         3.9460    2.6260    4.3130 c3        1 MOL     -0.367232
     46 C16         3.1250    1.4130    3.9950 c         1 MOL      0.865758
     47 O7          3.1090    0.9340    2.8230 o         1 MOL     -0.717257
     48 O8          2.3090    1.0540    4.8760 o         1 MOL     -0.717257
     49 H21         3.1270    3.1530    1.8360 hn        1 MOL      0.157575
     50 H22         5.3070    4.0690    3.5910 h1        1 MOL      0.086426
     51 H23         3.2470    3.4170    4.5850 hc        1 MOL      0.095575
     52 H24         4.5980    2.3420    5.1420 hc        1 MOL      0.095575
     53 N5          5.9380    1.8040    1.4120 n         1 MOL     -0.191977
     54 C17         7.1360    1.4090    0.6630 c3        1 MOL     -0.258242
     55 C18         7.3980   -0.1600    0.8010 c         1 MOL      0.559629
     56 O9          8.4460   -0.5920    0.4670 o         1 MOL     -0.571338
     57 H25         5.0810    1.7830    0.8740 hn        1 MOL      0.169669
     58 H26         7.9830    1.9880    1.0300 h1        1 MOL      0.138025
     59 H27         7.1170    1.6230   -0.4060 h1        1 MOL      0.138025
     60 N6          6.4880   -0.9590    1.4130 n         1 MOL     -0.238604
     61 C19         6.8500   -2.3320    1.7700 c3        1 MOL     -0.011162
     62 C20         6.9350   -3.3060    0.5840 c         1 MOL      0.408976
     63 O10         7.3550   -4.3980    0.8230 o         1 MOL     -0.541787
     64 C21         5.7660   -2.9670    2.6800 c3        1 MOL     -0.240443
     65 C22         4.3300   -2.5870    2.3630 c         1 MOL      0.792129
     66 O11         3.5710   -2.2620    3.3060 o         1 MOL     -0.726176
     67 O12         3.9410   -2.6850    1.1820 o         1 MOL     -0.726176
     68 H28         5.6260   -0.5710    1.7450 hn        1 MOL      0.176469
     69 H29         7.7680   -2.3740    2.3520 h1        1 MOL      0.104624
     70 H30         6.0990   -2.5940    3.6540 hc        1 MOL      0.071679
     71 H31         5.7530   -4.0600    2.7250 hc        1 MOL      0.071679
     72 N7          6.5510   -2.8180   -0.5720 n         1 MOL     -0.139300
     73 C23         6.4180   -3.5880   -1.8290 c3        1 MOL     -0.249665
     74 C24         5.0600   -4.2720   -2.0530 c         1 MOL      0.550619
     75 O13         4.8720   -5.2390   -2.8220 o         1 MOL     -0.587391
     76 H32         6.2740   -1.8390   -0.6020 hn        1 MOL      0.282866
     77 H33         7.2430   -4.3040   -1.8690 h1        1 MOL      0.108416
     78 H34         6.5300   -2.8380   -2.6060 h1        1 MOL      0.108416
     79 N8          4.0590   -3.8230   -1.3290 n         1 MOL      0.011313
     80 C25         2.6510   -4.3070   -1.6280 c3        1 MOL     -0.506903
     81 C26         1.5420   -3.1880   -1.6860 c         1 MOL      0.879057
     82 O14         1.8240   -2.0520   -1.1870 o         1 MOL     -0.658181
     83 C27         2.1210   -5.3120   -0.5800 c3        1 MOL      0.451694
     84 C28         3.0760   -6.5220   -0.5800 c3        1 MOL     -0.581978
     85 O15         2.1680   -4.7640    0.7290 oh        1 MOL     -0.578136
     86 H35         4.2210   -3.0540   -0.6840 hn        1 MOL      0.056053
     87 H36         2.6010   -4.7710   -2.6180 h1        1 MOL      0.155144
     88 H37         1.0870   -5.5850   -0.7600 h1        1 MOL      0.018049
     89 H38         2.9590   -4.2170    0.6810 ho        1 MOL      0.380167
     90 H39         3.2440   -7.0050   -1.5460 hc        1 MOL      0.153759
     91 H40         4.0910   -6.2520   -0.2640 hc        1 MOL      0.153759
     92 H41         2.7540   -7.3210    0.0860 hc        1 MOL      0.153759
     93 N9          0.3490   -3.4770   -2.2160 n         1 MOL     -0.630968
     94 C29        -0.7440   -2.5300   -2.1170 c3        1 MOL      0.064624
     95 C30        -1.9280   -3.1170   -1.3320 c         1 MOL      0.481367
     96 O16        -2.4650   -4.2060   -1.6220 o         1 MOL     -0.565970
     97 C31        -1.2220   -2.1290   -3.5680 c3        1 MOL      0.101490
     98 C32        -0.1230   -1.4880   -4.4950 c3        1 MOL     -0.047754
     99 C33        -2.6070   -1.3700   -3.6640 c3        1 MOL     -0.071810
    100 C34        -0.4220   -1.6180   -6.0340 c3        1 MOL     -0.240794
    101 H42         0.2260   -4.3770   -2.6440 hn        1 MOL      0.316728
    102 H43        -0.3650   -1.6870   -1.5400 h1        1 MOL      0.058721
    103 H44        -1.4510   -3.1280   -3.9400 hc        1 MOL      0.028598
    104 H45         0.8210   -1.9890   -4.2630 hc        1 MOL      0.052201
    105 H46         0.0740   -0.4280   -4.3280 hc        1 MOL      0.052201
    106 H47        -3.3500   -1.9750   -3.1370 hc        1 MOL      0.001683
    107 H48        -2.5170   -0.3360   -3.3370 hc        1 MOL      0.001683
    108 H49        -2.8150   -1.2840   -4.7280 hc        1 MOL      0.001683
    109 H50        -1.3200   -1.0230   -6.2460 hc        1 MOL      0.063252
    110 H51         0.3820   -1.2490   -6.6650 hc        1 MOL      0.063252
    111 H52        -0.7610   -2.6270   -6.2580 hc        1 MOL      0.063252
    112 N10        -2.5010   -2.2530   -0.5370 n         1 MOL     -0.107539
    113 C35        -3.8360   -2.5800    0.1100 c3        1 MOL     -0.003265
    114 C36        -5.0310   -2.0900   -0.6570 c         1 MOL      0.354712
    115 O17        -4.9560   -1.1070   -1.4450 o         1 MOL     -0.308714
    116 C37        -3.9750   -2.0640    1.5970 c3        1 MOL     -0.031146
    117 C38        -2.9230   -2.7980    2.4070 c3        1 MOL     -0.233276
    118 O18        -3.7790   -0.6700    1.5480 oh        1 MOL     -0.167424
    119 H53        -2.0280   -1.3750   -0.3880 hn        1 MOL      0.098067
    120 H54        -3.9820   -3.6530    0.0360 h1        1 MOL      0.078452
    121 H55        -4.9160   -2.0810    2.1430 h1        1 MOL      0.059650
    122 H56        -3.3410   -0.3840    2.3520 ho        1 MOL      0.318549
    123 H57        -1.9340   -2.4200    2.1400 hc        1 MOL      0.078944
    124 H58        -3.0760   -2.7110    3.4880 hc        1 MOL      0.078944
    125 H59        -2.8930   -3.8640    2.2280 hc        1 MOL      0.078944
    126 N11        -6.2110   -2.6640   -0.4690 n         1 MOL     -0.195654
    127 C39        -7.4700   -2.1790   -1.0080 c3        1 MOL     -0.363896
    128 C40        -7.6810   -0.6570   -0.6600 c         1 MOL      0.473802
    129 O19        -8.1960    0.0660   -1.4720 o         1 MOL     -0.494929
    130 C41        -8.6290   -2.9000   -0.4320 c3        1 MOL      0.539514
    131 C42        -8.7430   -4.4260   -0.6770 c3        1 MOL     -0.470097
    132 O20        -8.7410   -2.5860    0.9670 oh        1 MOL     -0.632373
    133 H60        -6.2350   -3.5160    0.0610 hn        1 MOL      0.235158
    134 H61        -7.4090   -2.4240   -2.0690 h1        1 MOL      0.172004
    135 H62        -9.4920   -2.4260   -0.8920 h1        1 MOL     -0.011138
    136 H63        -9.4570   -1.9500    0.9740 ho        1 MOL      0.353962
    137 H64        -7.7900   -4.7840   -0.2930 hc        1 MOL      0.133361
    138 H65        -9.4880   -4.8350    0.0170 hc        1 MOL      0.133361
    139 H66        -8.7760   -4.6300   -1.7450 hc        1 MOL      0.133361
    140 N12        -7.2660   -0.2050    0.5070 n         1 MOL     -0.208124
    141 C43        -7.2370    1.1550    0.9860 c3        1 MOL     -0.076225
    142 C44        -6.0760    1.9860    0.1940 c         1 MOL      0.381389
    143 O21        -6.4140    3.1050   -0.1540 o         1 MOL     -0.501835
    144 C45        -7.0630    0.9980    2.5060 c3        1 MOL      0.143979
    145 C46        -8.3660    0.6600    3.2510 c3        1 MOL     -0.062247
    146 C47        -8.2520    1.0550    4.7710 c3        1 MOL      0.128238
    147 C48        -9.4200    0.3600    5.4740 c3        1 MOL     -0.029036
    148 N13        -9.0090   -0.4130    6.5900 n4        1 MOL     -0.263190
    149 H67        -6.7190   -0.8360    1.0750 hn        1 MOL      0.173210
    150 H68        -8.1670    1.6890    0.8180 h1        1 MOL      0.117451
    151 H69        -6.6930    1.9250    2.9400 hc        1 MOL     -0.030212
    152 H70        -6.2840    0.2770    2.7420 hc        1 MOL     -0.030212
    153 H71        -8.5160   -0.4110    3.1350 hc        1 MOL      0.010118
    154 H72        -9.1950    1.2250    2.8380 hc        1 MOL      0.010118
    155 H73        -8.1970    2.1280    4.9840 hc        1 MOL      0.006079
    156 H74        -7.2960    0.6670    5.1060 hc        1 MOL      0.006079
    157 H75        -9.9830   -0.2240    4.7500 hx        1 MOL      0.085764
    158 H76       -10.0610    1.1520    5.8550 hx        1 MOL      0.085764
    159 H77        -9.7700   -0.9690    6.9520 hn        1 MOL      0.274023
    160 H78        -8.3010   -1.0460    6.2410 hn        1 MOL      0.274023
    161 H79        -8.5970    0.1620    7.3040 hn        1 MOL      0.274023
    162 N14        -4.9040    1.4630   -0.1220 n         1 MOL      0.149176
    163 C49        -3.8920    2.2620   -0.7810 c3        1 MOL     -0.020250
    164 C50        -4.3340    2.4350   -2.1890 c         1 MOL      0.269743
    165 O22        -4.3500    3.5710   -2.6850 o         1 MOL     -0.556227
    166 C51        -2.5780    1.5370   -0.8710 c3        1 MOL      0.073199
    167 C52        -1.6930    1.8890    0.4000 c3        1 MOL     -0.326460
    168 C53        -0.4120    1.0180    0.5980 c         1 MOL      0.798302
    169 O23        -0.3370   -0.1820    0.2670 o         1 MOL     -0.727182
    170 O24         0.6620    1.5480    0.9930 o         1 MOL     -0.727182
    171 H80        -4.6610    0.5230    0.1480 hn        1 MOL     -0.415876
    172 H81        -3.8220    3.2700   -0.3770 h1        1 MOL      0.086278
    173 H82        -1.9050    1.8100   -1.6850 hc        1 MOL      0.051298
    174 H83        -2.5920    0.4770   -1.1220 hc        1 MOL      0.051298
    175 H84        -2.2730    1.6600    1.2920 hc        1 MOL      0.059713
    176 H85        -1.4500    2.9440    0.2930 hc        1 MOL      0.059713
    177 N15        -4.9150    1.4240   -2.8560 n         1 MOL      0.073662
    178 C54        -5.5470    1.4110   -4.2490 c3        1 MOL     -0.244067
    179 H86        -5.8420    0.3930   -4.5030 h1        1 MOL      0.095894
    180 H87        -6.4260    2.0550   -4.2560 h1        1 MOL      0.095894
    181 H88        -4.8240    1.7740   -4.9800 h1        1 MOL      0.095894
    182 H89        -4.9450    0.5430   -2.3730 hn        1 MOL      0.069189
    183 Ca1         1.9680   -0.7470    1.2110 Ca        1 MOL      1.698038
    184 O25         0.5380   -0.4800    3.4300 oh        1 MOL     -0.820551
    185 H90         1.0530    0.0240    4.0570 ho        1 MOL      0.382114
    186 H91         0.2600   -1.2580    3.9040 ho        1 MOL      0.382114
    187 O26         0.5630   -3.0130    2.0440 oh        1 MOL     -0.820551
    188 H92         0.2980   -3.2050    2.9490 ho        1 MOL      0.382114
    189 H93         0.9520   -3.8370    1.7350 ho        1 MOL      0.382114
@<TRIPOS>BOND
     1    1    2 1   
     2    1    4 1   
     3    1    5 1   
     4    1    6 1   
     5    2    3 2   
     6    2    7 1   
     7    7    8 1   
     8    7   15 1   
     9    8    9 1   
    10    8   11 1   
    11    8   16 1   
    12    9   10 2   
    13    9   19 1   
    14   11   12 1   
    15   11   17 1   
    16   11   18 1   
    17   12   13 1   
    18   12   14 1   
    19   19   20 1   
    20   19   28 1   
    21   20   21 1   
    22   20   23 1   
    23   20   29 1   
    24   21   22 2   
    25   21   41 1   
    26   23   24 1   
    27   23   30 1   
    28   23   31 1   
    29   24   25 1   
    30   24   32 1   
    31   24   33 1   
    32   25   26 1   
    33   25   34 1   
    34   25   35 1   
    35   26   27 1   
    36   26   36 1   
    37   26   37 1   
    38   27   38 1   
    39   27   39 1   
    40   27   40 1   
    41   41   42 1   
    42   41   49 1   
    43   42   43 1   
    44   42   45 1   
    45   42   50 1   
    46   43   44 2   
    47   43   53 1   
    48   45   46 1   
    49   45   51 1   
    50   45   52 1   
    51   46   47 1   
    52   46   48 1   
    53   53   54 1   
    54   53   57 1   
    55   54   55 1   
    56   54   58 1   
    57   54   59 1   
    58   55   56 2   
    59   55   60 1   
    60   60   61 1   
    61   60   68 1   
    62   61   62 1   
    63   61   64 1   
    64   61   69 1   
    65   62   63 2   
    66   62   72 1   
    67   64   65 1   
    68   64   70 1   
    69   64   71 1   
    70   65   66 1   
    71   65   67 1   
    72   72   73 1   
    73   72   76 1   
    74   73   74 1   
    75   73   77 1   
    76   73   78 1   
    77   74   75 2   
    78   74   79 1   
    79   79   80 1   
    80   79   86 1   
    81   80   81 1   
    82   80   83 1   
    83   80   87 1   
    84   81   82 2   
    85   81   93 1   
    86   83   84 1   
    87   83   85 1   
    88   83   88 1   
    89   84   90 1   
    90   84   91 1   
    91   84   92 1   
    92   85   89 1   
    93   93   94 1   
    94   93  101 1   
    95   94   95 1   
    96   94   97 1   
    97   94  102 1   
    98   95   96 2   
    99   95  112 1   
   100   97   98 1   
   101   97   99 1   
   102   97  103 1   
   103   98  100 1   
   104   98  104 1   
   105   98  105 1   
   106   99  106 1   
   107   99  107 1   
   108   99  108 1   
   109  100  109 1   
   110  100  110 1   
   111  100  111 1   
   112  112  113 1   
   113  112  119 1   
   114  113  114 1   
   115  113  116 1   
   116  113  120 1   
   117  114  115 2   
   118  114  126 1   
   119  116  117 1   
   120  116  118 1   
   121  116  121 1   
   122  117  123 1   
   123  117  124 1   
   124  117  125 1   
   125  118  122 1   
   126  126  127 1   
   127  126  133 1   
   128  127  128 1   
   129  127  130 1   
   130  127  134 1   
   131  128  129 2   
   132  128  140 1   
   133  130  131 1   
   134  130  132 1   
   135  130  135 1   
   136  131  137 1   
   137  131  138 1   
   138  131  139 1   
   139  132  136 1   
   140  140  141 1   
   141  140  149 1   
   142  141  142 1   
   143  141  144 1   
   144  141  150 1   
   145  142  143 2   
   146  142  162 1   
   147  144  145 1   
   148  144  151 1   
   149  144  152 1   
   150  145  146 1   
   151  145  153 1   
   152  145  154 1   
   153  146  147 1   
   154  146  155 1   
   155  146  156 1   
   156  147  148 1   
   157  147  157 1   
   158  147  158 1   
   159  148  159 1   
   160  148  160 1   
   161  148  161 1   
   162  162  163 1   
   163  162  171 1   
   164  163  164 1   
   165  163  166 1   
   166  163  172 1   
   167  164  165 2   
   168  164  177 1   
   169  166  167 1   
   170  166  173 1   
   171  166  174 1   
   172  167  168 1   
   173  167  175 1   
   174  167  176 1   
   175  168  169 1   
   176  168  170 1   
   177  177  178 1   
   178  177  182 1   
   179  178  179 1   
   180  178  180 1   
   181  178  181 1   
   182  184  185 1   
   183  184  186 1   
   184  187  188 1   
   185  187  189 1   
@<TRIPOS>SUBSTRUCTURE
     1 MOL         1 TEMP              0 ****  ****    0 ROOT
