@<TRIPOS>MOLECULE
MOL
  179   176     1     0     0
SMALL
resp


@<TRIPOS>ATOM
      1 C1          2.5400    3.2320    4.1090 c3        1 MOL     -0.459289
      2 C2          1.6540    2.9590    2.8420 c         1 MOL      0.709896
      3 O1          2.1770    2.8240    1.7320 o         1 MOL     -0.618710
      4 H1          3.5030    2.7360    3.9910 hc        1 MOL      0.121516
      5 H2          2.6960    4.3060    4.2190 hc        1 MOL      0.121516
      6 H3          2.0370    2.8450    4.9940 hc        1 MOL      0.121516
      7 N1          0.3780    2.7700    2.9750 n         1 MOL     -0.669928
      8 C3         -0.6050    2.4210    1.9490 c3        1 MOL      0.378487
      9 C4         -1.1460    3.8190    1.4780 c         1 MOL      0.483600
     10 O2         -2.2260    4.2730    1.8810 o         1 MOL     -0.515686
     11 C5         -1.6040    1.3410    2.4910 c3        1 MOL     -0.512580
     12 C6         -2.7730    1.0160    1.4620 c         1 MOL      0.693316
     13 O3         -3.9730    0.8710    1.8380 o         1 MOL     -0.644021
     14 O4         -2.4150    1.0120    0.2780 o         1 MOL     -0.644021
     15 H4          0.0470    2.6870    3.9240 hn        1 MOL      0.329172
     16 H5         -0.0770    2.1240    1.0450 h1        1 MOL      0.030195
     17 H6         -1.9290    1.6270    3.4930 hc        1 MOL      0.117312
     18 H7         -1.0170    0.4420    2.6870 hc        1 MOL      0.117312
     19 N2         -0.4300    4.5880    0.6350 n         1 MOL     -0.468828
     20 C7         -0.8410    5.9020    0.1300 c3        1 MOL      0.061244
     21 C8         -1.8110    5.9680   -1.0810 c         1 MOL      0.437506
     22 O5         -2.1290    7.0910   -1.5250 o         1 MOL     -0.544690
     23 C9          0.3140    6.8500   -0.1570 c3        1 MOL     -0.013022
     24 C10         1.2120    7.1080    1.0320 c3        1 MOL      0.232194
     25 C11         2.4500    8.0030    0.6290 c3        1 MOL     -0.087411
     26 C12         3.5380    8.0770    1.7580 c3        1 MOL     -0.132184
     27 N3          4.4980    6.9240    1.7930 n4        1 MOL     -0.261045
     28 H8          0.4880    4.2610    0.3800 hn        1 MOL      0.337077
     29 H9         -1.3610    6.3810    0.9560 h1        1 MOL      0.075098
     30 H10         0.0090    7.8480   -0.4750 hc        1 MOL      0.003410
     31 H11         0.9290    6.3940   -0.9380 hc        1 MOL      0.003410
     32 H12         1.5690    6.1460    1.3920 hc        1 MOL     -0.057751
     33 H13         0.6660    7.5560    1.8660 hc        1 MOL     -0.057751
     34 H14         2.1490    9.0330    0.4410 hc        1 MOL      0.066659
     35 H15         2.9510    7.5950   -0.2420 hc        1 MOL      0.066659
     36 H16         3.0380    8.2000    2.7140 hx        1 MOL      0.124058
     37 H17         4.2170    8.9050    1.5570 hx        1 MOL      0.124058
     38 H18         3.9300    6.1010    1.9130 hn        1 MOL      0.310041
     39 H19         5.0660    6.7690    0.9720 hn        1 MOL      0.310041
     40 H20         5.1620    6.9490    2.5610 hn        1 MOL      0.310041
     41 N4         -2.4720    4.8380   -1.3830 n         1 MOL     -0.285097
     42 C13        -3.5580    4.6620   -2.3660 c3        1 MOL      0.081405
     43 C14        -4.8890    4.1900   -1.7460 c         1 MOL      0.436976
     44 O6         -5.8490    4.1010   -2.4370 o         1 MOL     -0.485549
     45 C15        -3.1380    3.6270   -3.4160 c3        1 MOL     -0.316154
     46 C16        -2.3430    2.3870   -2.9230 c         1 MOL      0.849127
     47 O7         -2.6920    1.2500   -3.3340 o         1 MOL     -0.784130
     48 O8         -1.3130    2.4730   -2.1950 o         1 MOL     -0.784130
     49 H21        -2.1070    3.9850   -0.9670 hn        1 MOL      0.223547
     50 H22        -3.7170    5.6580   -2.7660 h1        1 MOL      0.091472
     51 H23        -2.4310    4.1520   -4.0530 hc        1 MOL      0.082897
     52 H24        -4.0960    3.3960   -3.8780 hc        1 MOL      0.082897
     53 N5         -4.9590    3.9430   -0.4420 n         1 MOL     -0.288899
     54 C17        -6.1660    3.6150    0.2830 c3        1 MOL      0.010689
     55 C18        -6.8350    2.3120   -0.0990 c         1 MOL      0.424495
     56 O9         -8.0850    2.3010   -0.1180 o         1 MOL     -0.556120
     57 H25        -4.0950    4.0060    0.0770 hn        1 MOL      0.187249
     58 H26        -6.8780    4.4360    0.3260 h1        1 MOL      0.066767
     59 H27        -5.8300    3.4230    1.3120 h1        1 MOL      0.066767
     60 N6         -6.0470    1.2740   -0.3950 n         1 MOL     -0.123134
     61 C19        -6.5800    0.0300   -1.0520 c3        1 MOL     -0.063867
     62 C20        -6.5400   -1.1600   -0.0380 c         1 MOL      0.412594
     63 O10        -7.1260   -2.1530   -0.4000 o         1 MOL     -0.504381
     64 C21        -5.8240   -0.2130   -2.3560 c3        1 MOL     -0.119133
     65 C22        -4.6200   -1.1690   -2.3070 c         1 MOL      0.626984
     66 N7         -4.5590   -2.2230   -3.1170 n         1 MOL     -0.814323
     67 O11        -3.7130   -1.0270   -1.5240 o         1 MOL     -0.535512
     68 H28        -5.0680    1.2490   -0.1640 hn        1 MOL      0.074433
     69 H29        -7.6420    0.1490   -1.2280 h1        1 MOL      0.137855
     70 H30        -5.4270    0.7100   -2.7830 hc        1 MOL      0.068185
     71 H31        -6.5390   -0.6280   -3.0650 hc        1 MOL      0.068185
     72 H32        -5.1970   -2.2870   -3.9020 hn        1 MOL      0.360886
     73 H33        -3.7910   -2.8640   -3.0640 hn        1 MOL      0.360886
     74 N8         -6.0870   -0.9030    1.2260 n         1 MOL     -0.292498
     75 C23        -6.0450   -1.9150    2.2910 c3        1 MOL     -0.279820
     76 C24        -4.6970   -2.6430    2.4350 c         1 MOL      0.589502
     77 O12        -4.6190   -3.5430    3.2870 o         1 MOL     -0.555018
     78 H34        -5.8100    0.0460    1.4300 hn        1 MOL      0.275538
     79 H35        -6.8180   -2.6500    2.0600 h1        1 MOL      0.153979
     80 H36        -6.2260   -1.3930    3.2270 h1        1 MOL      0.153979
     81 N9         -3.7310   -2.3930    1.5610 n         1 MOL     -0.426027
     82 C25        -2.5510   -3.2530    1.3250 c3        1 MOL      0.110395
     83 C26        -1.2170   -2.4920    1.2460 c         1 MOL      0.451122
     84 O13        -1.1140   -1.4840    0.5610 o         1 MOL     -0.555178
     85 C27        -2.8800   -4.0840    0.0840 c3        1 MOL      0.128343
     86 C28        -4.0890   -4.9970    0.2360 ca        1 MOL     -0.123613
     87 C29        -4.0480   -5.9720    1.2580 ca        1 MOL     -0.062916
     88 C30        -5.1950   -4.8610   -0.6520 ca        1 MOL     -0.062916
     89 C31        -5.1580   -6.7690    1.3560 ca        1 MOL     -0.345894
     90 C32        -6.3190   -5.7370   -0.5710 ca        1 MOL     -0.345894
     91 C33        -6.2540   -6.6730    0.4750 ca        1 MOL      0.447384
     92 O14        -7.2860   -7.5860    0.6490 oh        1 MOL     -0.559134
     93 H37        -3.6840   -1.5840    0.9490 hn        1 MOL      0.373551
     94 H38        -2.4770   -3.9510    2.1580 h1        1 MOL      0.029355
     95 H39        -2.0570   -4.7140   -0.2500 hc        1 MOL     -0.043287
     96 H40        -3.0290   -3.3610   -0.7140 hc        1 MOL     -0.043287
     97 H41        -3.2480   -6.0230    1.9890 ha        1 MOL      0.137749
     98 H42        -5.2590   -4.1370   -1.4530 ha        1 MOL      0.137749
     99 H43        -5.1860   -7.4530    2.1910 ha        1 MOL      0.170606
    100 H44        -7.1680   -5.7320   -1.2320 ha        1 MOL      0.170606
    101 H45        -8.0280   -7.4750    0.0580 ho        1 MOL      0.382646
    102 N10        -0.1440   -3.0860    1.8010 n         1 MOL     -0.424738
    103 C34         1.2520   -2.6310    1.7540 c3        1 MOL      0.019166
    104 C35         2.0350   -3.6540    0.9570 c         1 MOL      0.502658
    105 O15         1.9630   -4.8150    1.1650 o         1 MOL     -0.553165
    106 C36         1.8690   -2.4440    3.1570 c3        1 MOL      0.200384
    107 C37         1.1040   -1.4370    4.0590 c3        1 MOL      0.069689
    108 C38         3.3780   -2.0020    3.0070 c3        1 MOL     -0.404703
    109 C39         1.4220   -1.4630    5.5560 c3        1 MOL     -0.140877
    110 H46        -0.2420   -3.9660    2.2940 hn        1 MOL      0.260700
    111 H47         1.2650   -1.7060    1.1870 h1        1 MOL      0.001668
    112 H48         1.8140   -3.3730    3.7220 hc        1 MOL     -0.005820
    113 H49         0.0310   -1.5750    3.8680 hc        1 MOL      0.016201
    114 H50         1.4690   -0.4650    3.7300 hc        1 MOL      0.016201
    115 H51         3.8710   -2.7760    2.4260 hc        1 MOL      0.082937
    116 H52         3.5070   -0.9570    2.7190 hc        1 MOL      0.082937
    117 H53         3.8560   -2.0100    3.9840 hc        1 MOL      0.082937
    118 H54         1.0310   -0.5590    6.0090 hc        1 MOL      0.027178
    119 H55         0.9400   -2.3660    5.9440 hc        1 MOL      0.027178
    120 H56         2.4930   -1.5930    5.7290 hc        1 MOL      0.027178
    121 N11         2.8180   -3.1030    0.0400 n         1 MOL     -0.259086
    122 C40         3.8300   -3.8920   -0.7860 c3        1 MOL     -0.113375
    123 C41         5.3060   -3.4850   -0.5020 c         1 MOL      0.565903
    124 O16         5.5140   -2.5380    0.2470 o         1 MOL     -0.497690
    125 C42         3.3770   -3.7280   -2.2940 c3        1 MOL     -0.048232
    126 O17         3.4650   -2.4260   -2.8040 oh        1 MOL     -0.515802
    127 H57         2.6990   -2.1250   -0.1230 hn        1 MOL      0.422185
    128 H58         3.7230   -4.9420   -0.5170 h1        1 MOL      0.085161
    129 H59         2.4500   -4.2710   -2.4910 h1        1 MOL      0.085942
    130 H60         4.0310   -4.2770   -2.9570 h1        1 MOL      0.085942
    131 H61         2.6880   -1.9870   -2.4410 ho        1 MOL      0.295030
    132 N12         6.3040   -4.2100   -1.0340 n         1 MOL     -0.429600
    133 C43         7.7060   -4.0270   -0.6970 c3        1 MOL      0.125121
    134 C44         8.2010   -2.6700   -1.1870 c         1 MOL      0.360574
    135 O18         9.0180   -2.0230   -0.5470 o         1 MOL     -0.509632
    136 C45         8.3820   -5.2660   -1.3610 c3        1 MOL     -0.370283
    137 H62         6.0010   -5.0760   -1.4490 hn        1 MOL      0.252698
    138 H63         7.8260   -4.1320    0.3760 h1        1 MOL      0.100853
    139 H64         9.4770   -5.2000   -1.3410 hc        1 MOL      0.117361
    140 H65         8.3050   -6.1520   -0.7180 hc        1 MOL      0.117361
    141 H66         8.1340   -5.3990   -2.4150 hc        1 MOL      0.117361
    142 N13         7.6080   -2.0960   -2.2300 n         1 MOL     -0.235860
    143 C46         7.8570   -0.6820   -2.7450 c3        1 MOL      0.053639
    144 C47         7.2520    0.3540   -1.7050 c         1 MOL      0.336997
    145 O19         7.8050    1.4510   -1.5840 o         1 MOL     -0.506004
    146 C48         7.4250   -0.4890   -4.2980 c3        1 MOL     -0.375966
    147 H67         7.0620   -2.7050   -2.8280 hn        1 MOL      0.217229
    148 H68         8.9340   -0.6240   -2.6440 h1        1 MOL      0.099928
    149 H69         6.3570   -0.6660   -4.3680 hc        1 MOL      0.121253
    150 H70         7.5890    0.5600   -4.5730 hc        1 MOL      0.121253
    151 H71         8.0710   -1.1670   -4.8480 hc        1 MOL      0.121253
    152 N14         6.1120    0.0450   -1.0630 n         1 MOL      0.072166
    153 C49         5.4990    0.9880   -0.1050 c3        1 MOL     -0.444088
    154 C50         6.2250    1.1010    1.2430 c         1 MOL      0.612169
    155 O20         6.2510    2.1830    1.8240 o         1 MOL     -0.617870
    156 C51         4.0320    0.5340    0.0730 c3        1 MOL      0.264802
    157 C52         3.2780    0.6410   -1.2600 c3        1 MOL     -0.100547
    158 C53         1.8140    0.2000   -1.1560 c         1 MOL      0.668899
    159 O21         1.4370   -0.9710   -1.5180 o         1 MOL     -0.715651
    160 O22         1.0160    1.0480   -0.7230 o         1 MOL     -0.715651
    161 H72         5.6060   -0.8000   -1.3140 hn        1 MOL      0.093523
    162 H73         5.6090    1.9960   -0.5070 h1        1 MOL      0.153848
    163 H74         3.6370    1.2670    0.7770 hc        1 MOL     -0.007657
    164 H75         3.9870   -0.4790    0.4750 hc        1 MOL     -0.007657
    165 H76         3.7960    0.2060   -2.1210 hc        1 MOL      0.005890
    166 H77         3.2810    1.7080   -1.4790 hc        1 MOL      0.005890
    167 N15         6.7890   -0.0100    1.7210 n         1 MOL     -0.170276
    168 C54         7.7350   -0.1470    2.8330 c3        1 MOL     -0.244352
    169 H78         8.6190   -0.6850    2.4920 h1        1 MOL      0.106600
    170 H79         8.0250    0.8420    3.1870 h1        1 MOL      0.106600
    171 H80         7.2640   -0.7010    3.6450 h1        1 MOL      0.106600
    172 H81         6.6860   -0.7400    1.0310 hn        1 MOL      0.177147
    173 Ca1        -1.1270   -0.0320   -1.6330 Ca        1 MOL      1.763329
    174 O23        -0.0560   -0.1410   -4.0820 oh        1 MOL     -0.806127
    175 H82        -0.0830   -0.9200   -4.6470 ho        1 MOL      0.400002
    176 H83         0.4920    0.4840   -4.5620 ho        1 MOL      0.400002
    177 O24        -0.8610   -2.7010   -2.3670 oh        1 MOL     -0.806127
    178 H84        -1.5060   -2.9900   -3.0130 ho        1 MOL      0.400002
    179 H85        -0.3350   -3.4780   -2.1850 ho        1 MOL      0.400002
@<TRIPOS>BOND
     1    1    2 1   
     2    1    4 1   
     3    1    5 1   
     4    1    6 1   
     5    2    3 2   
     6    2    7 1   
     7    7    8 1   
     8    7   15 1   
     9    8    9 1   
    10    8   11 1   
    11    8   16 1   
    12    9   10 2   
    13    9   19 1   
    14   11   12 1   
    15   11   17 1   
    16   11   18 1   
    17   12   13 1   
    18   12   14 1   
    19   19   20 1   
    20   19   28 1   
    21   20   21 1   
    22   20   23 1   
    23   20   29 1   
    24   21   22 2   
    25   21   41 1   
    26   23   24 1   
    27   23   30 1   
    28   23   31 1   
    29   24   25 1   
    30   24   32 1   
    31   24   33 1   
    32   25   26 1   
    33   25   34 1   
    34   25   35 1   
    35   26   27 1   
    36   26   36 1   
    37   26   37 1   
    38   27   38 1   
    39   27   39 1   
    40   27   40 1   
    41   41   42 1   
    42   41   49 1   
    43   42   43 1   
    44   42   45 1   
    45   42   50 1   
    46   43   44 2   
    47   43   53 1   
    48   45   46 1   
    49   45   51 1   
    50   45   52 1   
    51   46   47 1   
    52   46   48 1   
    53   53   54 1   
    54   53   57 1   
    55   54   55 1   
    56   54   58 1   
    57   54   59 1   
    58   55   56 2   
    59   55   60 1   
    60   60   61 1   
    61   60   68 1   
    62   61   62 1   
    63   61   64 1   
    64   61   69 1   
    65   62   63 2   
    66   62   74 1   
    67   64   65 1   
    68   64   70 1   
    69   64   71 1   
    70   65   66 1   
    71   65   67 2   
    72   66   72 1   
    73   66   73 1   
    74   74   75 1   
    75   74   78 1   
    76   75   76 1   
    77   75   79 1   
    78   75   80 1   
    79   76   77 2   
    80   76   81 1   
    81   81   82 1   
    82   81   93 1   
    83   82   83 1   
    84   82   85 1   
    85   82   94 1   
    86   83   84 2   
    87   83  102 1   
    88   85   86 1   
    89   85   95 1   
    90   85   96 1   
    91   86   87 ar  
    92   86   88 ar  
    93   87   89 ar  
    94   87   97 1   
    95   88   90 ar  
    96   88   98 1   
    97   89   91 ar  
    98   89   99 1   
    99   90   91 ar  
   100   90  100 1   
   101   91   92 1   
   102   92  101 1   
   103  102  103 1   
   104  102  110 1   
   105  103  104 1   
   106  103  106 1   
   107  103  111 1   
   108  104  105 2   
   109  104  121 1   
   110  106  107 1   
   111  106  108 1   
   112  106  112 1   
   113  107  109 1   
   114  107  113 1   
   115  107  114 1   
   116  108  115 1   
   117  108  116 1   
   118  108  117 1   
   119  109  118 1   
   120  109  119 1   
   121  109  120 1   
   122  121  122 1   
   123  121  127 1   
   124  122  123 1   
   125  122  125 1   
   126  122  128 1   
   127  123  124 2   
   128  123  132 1   
   129  125  126 1   
   130  125  129 1   
   131  125  130 1   
   132  126  131 1   
   133  132  133 1   
   134  132  137 1   
   135  133  134 1   
   136  133  136 1   
   137  133  138 1   
   138  134  135 2   
   139  134  142 1   
   140  136  139 1   
   141  136  140 1   
   142  136  141 1   
   143  142  143 1   
   144  142  147 1   
   145  143  144 1   
   146  143  146 1   
   147  143  148 1   
   148  144  145 2   
   149  144  152 1   
   150  146  149 1   
   151  146  150 1   
   152  146  151 1   
   153  152  153 1   
   154  152  161 1   
   155  153  154 1   
   156  153  156 1   
   157  153  162 1   
   158  154  155 2   
   159  154  167 1   
   160  156  157 1   
   161  156  163 1   
   162  156  164 1   
   163  157  158 1   
   164  157  165 1   
   165  157  166 1   
   166  158  159 1   
   167  158  160 1   
   168  167  168 1   
   169  167  172 1   
   170  168  169 1   
   171  168  170 1   
   172  168  171 1   
   173  174  175 1   
   174  174  176 1   
   175  177  178 1   
   176  177  179 1   
@<TRIPOS>SUBSTRUCTURE
     1 MOL         1 TEMP              0 ****  ****    0 ROOT
