@<TRIPOS>MOLECULE
MOL
  189   185     1     0     0
SMALL
resp


@<TRIPOS>ATOM
      1 C1          0.6920    2.6810    5.6400 c3        1 MOL     -0.267689
      2 C2          0.1520    2.6220    4.1840 c         1 MOL      0.786444
      3 O1          0.8720    3.0390    3.2660 o         1 MOL     -0.611718
      4 H1          1.7530    2.4290    5.6440 hc        1 MOL      0.064548
      5 H2          0.5570    3.6870    6.0370 hc        1 MOL      0.064548
      6 H3          0.1470    1.9680    6.2590 hc        1 MOL      0.064548
      7 N1         -1.0690    2.1410    3.9860 n         1 MOL     -0.711795
      8 C3         -1.7040    1.9450    2.6370 c3        1 MOL      0.178144
      9 C4         -2.0130    3.3030    2.1090 c         1 MOL      0.480105
     10 O2         -2.4760    4.2030    2.8500 o         1 MOL     -0.582948
     11 C5         -2.9250    0.9020    2.7460 c3        1 MOL     -0.316608
     12 C6         -3.7240    0.6770    1.4750 c         1 MOL      0.701400
     13 O3         -4.8420    0.1190    1.5840 o         1 MOL     -0.642369
     14 O4         -3.1960    0.9870    0.3710 o         1 MOL     -0.642369
     15 H4         -1.7240    1.9740    4.7410 hn        1 MOL      0.364528
     16 H5         -0.9920    1.4520    1.9790 h1        1 MOL      0.019390
     17 H6         -3.4980    1.3030    3.5740 hc        1 MOL      0.085606
     18 H7         -2.5500   -0.0760    3.0570 hc        1 MOL      0.085606
     19 N2         -1.7150    3.6000    0.8370 n         1 MOL     -0.011116
     20 C7         -1.7740    4.8700    0.1740 c3        1 MOL      0.000345
     21 C8         -2.7640    4.9640   -0.9550 c         1 MOL      0.486281
     22 O5         -2.9960    6.0610   -1.5180 o         1 MOL     -0.579491
     23 C9         -0.3900    5.2260   -0.4140 c3        1 MOL      0.145381
     24 C10         0.7390    5.6020    0.5180 c3        1 MOL     -0.054464
     25 C11         0.4110    6.8050    1.3660 c3        1 MOL      0.055157
     26 C12         1.5160    7.3290    2.1280 c3        1 MOL      0.107002
     27 N3          1.1680    8.6140    2.8700 n4        1 MOL     -0.420128
     28 H8         -1.2360    2.8830    0.3130 hn        1 MOL      0.052916
     29 H9         -2.0260    5.6800    0.8650 h1        1 MOL     -0.006434
     30 H10        -0.6500    6.0570   -1.0710 hc        1 MOL     -0.028753
     31 H11        -0.0400    4.4220   -1.0600 hc        1 MOL     -0.028753
     32 H12         1.5300    5.8880   -0.1850 hc        1 MOL      0.011157
     33 H13         1.0380    4.7550    1.1340 hc        1 MOL      0.011157
     34 H14        -0.3730    6.5600    2.0860 hc        1 MOL      0.014358
     35 H15         0.1110    7.5860    0.6600 hc        1 MOL      0.014358
     36 H16         2.3410    7.5540    1.4490 hx        1 MOL      0.055217
     37 H17         1.8030    6.5930    2.8870 hx        1 MOL      0.055217
     38 H18         0.7870    9.3260    2.2640 hn        1 MOL      0.333273
     39 H19         0.5860    8.4620    3.6830 hn        1 MOL      0.333273
     40 H20         2.0400    9.0020    3.2120 hn        1 MOL      0.333273
     41 N4         -3.3770    3.8420   -1.3230 n         1 MOL     -0.138297
     42 C13        -4.3780    3.7570   -2.3820 c3        1 MOL     -0.010045
     43 C14        -5.6530    3.0130   -1.9540 c         1 MOL      0.509714
     44 O6         -6.6280    2.8850   -2.7270 o         1 MOL     -0.513137
     45 C15        -3.7670    3.3170   -3.7330 c3        1 MOL     -0.231614
     46 C16        -2.9360    2.0390   -3.6810 c         1 MOL      0.784695
     47 O7         -2.1510    1.7090   -4.5950 o         1 MOL     -0.697142
     48 O8         -3.1840    1.2570   -2.7140 o         1 MOL     -0.697142
     49 H21        -3.3230    3.0150   -0.7450 hn        1 MOL     -0.062459
     50 H22        -4.7760    4.7490   -2.6070 h1        1 MOL      0.097472
     51 H23        -3.2440    4.1580   -4.1850 hc        1 MOL      0.067602
     52 H24        -4.5640    3.1250   -4.4370 hc        1 MOL      0.067602
     53 N5         -5.7250    2.5110   -0.6760 n         1 MOL     -0.510197
     54 C17        -7.0570    2.1700   -0.0660 c3        1 MOL     -0.084569
     55 C18        -7.5840    0.9080   -0.5810 c         1 MOL      0.450458
     56 O9         -8.8070    0.7320   -0.5840 o         1 MOL     -0.594866
     57 H25        -4.8730    2.2910   -0.1820 hn        1 MOL      0.349615
     58 H26        -7.7770    2.9670   -0.2570 h1        1 MOL      0.099473
     59 H27        -6.9900    2.0810    1.0100 h1        1 MOL      0.099473
     60 N6         -6.7240    0.0970   -1.1570 n         1 MOL     -0.074869
     61 C19        -7.0950   -1.1940   -1.7230 c3        1 MOL     -0.067697
     62 C20        -7.1070   -2.2810   -0.5720 c         1 MOL      0.452321
     63 O10        -7.4950   -3.4240   -0.8790 o         1 MOL     -0.529171
     64 C21        -6.1560   -1.5890   -2.7580 c3        1 MOL     -0.210085
     65 C22        -4.6740   -1.7070   -2.4490 c         1 MOL      0.764346
     66 O11        -3.7150   -1.6660   -3.2500 o         1 MOL     -0.721263
     67 O12        -4.4100   -1.8840   -1.1940 o         1 MOL     -0.721263
     68 H28        -5.7600    0.3390   -1.0190 hn        1 MOL      0.179566
     69 H29        -8.1360   -1.2200   -2.0640 h1        1 MOL      0.126678
     70 H30        -6.2360   -0.8800   -3.5880 hc        1 MOL      0.064778
     71 H31        -6.4030   -2.5720   -3.1520 hc        1 MOL      0.064778
     72 N7         -6.7870   -1.8800    0.6720 n         1 MOL     -0.284227
     73 C23        -6.8350   -2.8000    1.7820 c3        1 MOL     -0.148575
     74 C24        -5.6870   -3.7500    1.7880 c         1 MOL      0.555343
     75 O13        -5.8510   -4.7850    2.3840 o         1 MOL     -0.573096
     76 H32        -6.3600   -0.9810    0.8230 hn        1 MOL      0.259387
     77 H33        -7.8140   -3.2710    1.8040 h1        1 MOL      0.089145
     78 H34        -6.6270   -2.2750    2.7050 h1        1 MOL      0.089145
     79 N8         -4.5380   -3.4480    1.1710 n         1 MOL     -0.168636
     80 C25        -3.3140   -4.3310    1.1450 c3        1 MOL     -0.316322
     81 C26        -2.0920   -3.3350    1.2360 c         1 MOL      0.638896
     82 O14        -2.2250   -2.1580    0.8350 o         1 MOL     -0.586073
     83 C27        -3.2790   -5.1870   -0.1190 c3        1 MOL      0.456233
     84 C28        -4.2290   -6.3570   -0.0970 c3        1 MOL     -0.585204
     85 O15        -3.6520   -4.5180   -1.3720 oh        1 MOL     -0.584299
     86 H35        -4.4010   -2.5580    0.7180 hn        1 MOL      0.193670
     87 H36        -3.2730   -4.9620    2.0340 h1        1 MOL      0.132063
     88 H37        -2.2640   -5.5100   -0.3210 h1        1 MOL      0.013302
     89 H38        -4.0770   -3.6920   -1.1290 ho        1 MOL      0.375446
     90 H39        -3.9170   -7.0600   -0.8760 hc        1 MOL      0.154914
     91 H40        -4.1990   -6.8350    0.8780 hc        1 MOL      0.154914
     92 H41        -5.2770   -6.1300   -0.3090 hc        1 MOL      0.154914
     93 N9         -0.9110   -3.7880    1.6200 n         1 MOL     -0.538803
     94 C29         0.2930   -2.9380    1.7650 c3        1 MOL      0.034769
     95 C30         1.4360   -3.5940    0.9320 c         1 MOL      0.522091
     96 O16         1.7000   -4.7480    1.2000 o         1 MOL     -0.584602
     97 C31         0.7580   -2.8200    3.1840 c3        1 MOL      0.151952
     98 C32        -0.2210   -2.1130    4.0880 c3        1 MOL      0.096192
     99 C33         2.1910   -2.1980    3.3420 c3        1 MOL     -0.214408
    100 C34        -0.0770   -2.2770    5.6350 c3        1 MOL     -0.389265
    101 H42        -0.8200   -4.7000    2.0520 hn        1 MOL      0.303957
    102 H43         0.1390   -1.9500    1.3200 h1        1 MOL      0.026376
    103 H44         0.8800   -3.8490    3.5400 hc        1 MOL     -0.004002
    104 H45        -1.2540   -2.2690    3.7720 hc        1 MOL      0.027814
    105 H46        -0.0280   -1.0420    4.0280 hc        1 MOL      0.027814
    106 H47         2.1060   -1.1970    2.9040 hc        1 MOL      0.040363
    107 H48         2.5720   -2.2200    4.3650 hc        1 MOL      0.040363
    108 H49         2.9610   -2.7910    2.8520 hc        1 MOL      0.040363
    109 H50         0.7680   -1.6170    5.8660 hc        1 MOL      0.089049
    110 H51        -1.0200   -1.9030    6.0470 hc        1 MOL      0.089049
    111 H52         0.1870   -3.3140    5.8660 hc        1 MOL      0.089049
    112 N10         2.0890   -2.9100    0.0320 n         1 MOL     -0.098579
    113 C35         3.1750   -3.4340   -0.7340 c3        1 MOL      0.098932
    114 C36         4.5120   -3.0480   -0.1210 c         1 MOL      0.189721
    115 O17         4.5710   -2.1940    0.7690 o         1 MOL     -0.292396
    116 C37         3.1170   -2.9650   -2.2020 c3        1 MOL      0.140126
    117 C38         1.7380   -3.0510   -2.8690 c3        1 MOL     -0.270234
    118 O18         3.5450   -1.5940   -2.1010 oh        1 MOL     -0.522551
    119 H53         1.8750   -1.9400   -0.1440 hn        1 MOL      0.119543
    120 H54         3.0930   -4.5180   -0.7580 h1        1 MOL      0.058714
    121 H55         3.7700   -3.5660   -2.8320 h1        1 MOL      0.030417
    122 H56         3.2950   -1.1480   -2.9140 ho        1 MOL      0.402966
    123 H57         1.7400   -2.7430   -3.9130 hc        1 MOL      0.078184
    124 H58         1.2920   -4.0330   -2.7110 hc        1 MOL      0.078184
    125 H59         1.0290   -2.3810   -2.3690 hc        1 MOL      0.078184
    126 N11         5.5970   -3.6480   -0.5670 n         1 MOL     -0.205170
    127 C39         7.0030   -3.4950   -0.0780 c3        1 MOL     -0.046146
    128 C40         7.3820   -1.9180   -0.1570 c         1 MOL      0.396825
    129 O19         8.2000   -1.4980    0.6390 o         1 MOL     -0.488211
    130 C41         7.9930   -4.3720   -0.9080 c3        1 MOL      0.348920
    131 C42         9.2520   -4.5890   -0.1260 c3        1 MOL     -0.314702
    132 O20         7.4180   -5.5910   -1.1290 oh        1 MOL     -0.642172
    133 H60         5.3890   -4.3640   -1.2390 hn        1 MOL      0.237227
    134 H61         7.0090   -3.7620    0.9820 h1        1 MOL      0.121692
    135 H62         8.3330   -3.9180   -1.8380 h1        1 MOL      0.004114
    136 H63         8.1100   -6.2420   -0.9820 ho        1 MOL      0.422138
    137 H64         9.1530   -5.0660    0.8490 hc        1 MOL      0.083284
    138 H65         9.9580   -5.2500   -0.6360 hc        1 MOL      0.083284
    139 H66         9.7050   -3.6040   -0.0190 hc        1 MOL      0.083284
    140 N12         6.7250   -1.1410   -1.0640 n         1 MOL     -0.272589
    141 C43         6.9390    0.2930   -1.3480 c3        1 MOL      0.031153
    142 C44         6.1110    1.1900   -0.5040 c         1 MOL      0.507279
    143 O21         6.5890    2.1420   -0.0610 o         1 MOL     -0.532594
    144 C45         6.6180    0.5740   -2.8170 c3        1 MOL     -0.009411
    145 C46         6.8730    2.0430   -3.2930 c3        1 MOL     -0.116248
    146 C47         8.3860    2.4410   -3.1450 c3        1 MOL     -0.038802
    147 C48         8.5900    3.8870   -3.5730 c3        1 MOL      0.058372
    148 N13         9.9420    4.2720   -3.4720 n4        1 MOL     -0.180907
    149 H67         6.2220   -1.6690   -1.7620 hn        1 MOL      0.149253
    150 H68         7.9670    0.6020   -1.1900 h1        1 MOL      0.075397
    151 H69         5.5740    0.3530   -3.0170 hc        1 MOL      0.021917
    152 H70         7.2560   -0.1350   -3.3680 hc        1 MOL      0.021917
    153 H71         6.3230    2.7220   -2.6410 hc        1 MOL      0.061745
    154 H72         6.6970    2.1700   -4.3590 hc        1 MOL      0.061745
    155 H73         9.0820    1.8500   -3.7350 hc        1 MOL      0.031843
    156 H74         8.7070    2.4370   -2.1020 hc        1 MOL      0.031843
    157 H75         7.9430    4.4940   -2.9390 hx        1 MOL      0.070407
    158 H76         8.2640    4.1990   -4.5630 hx        1 MOL      0.070407
    159 H77        10.5000    4.0960   -4.3010 hn        1 MOL      0.262497
    160 H78        10.0920    5.2230   -3.1660 hn        1 MOL      0.262497
    161 H79        10.4850    3.6600   -2.8760 hn        1 MOL      0.262497
    162 N14         4.9220    0.7450   -0.0110 n         1 MOL     -0.206518
    163 C49         4.0790    1.3830    0.9960 c3        1 MOL     -0.078718
    164 C50         4.6000    1.2480    2.4310 c         1 MOL      0.466717
    165 O22         4.5180    2.1420    3.2420 o         1 MOL     -0.533925
    166 C51         2.6490    0.8820    0.8530 c3        1 MOL      0.099331
    167 C52         1.8210    1.5530   -0.2040 c3        1 MOL      0.064916
    168 C53         0.5290    0.8150   -0.6380 c         1 MOL      0.505748
    169 O23        -0.3740    1.5230   -1.1460 o         1 MOL     -0.620789
    170 O24         0.2950   -0.3930   -0.4510 o         1 MOL     -0.620789
    171 H80         4.5430   -0.1300   -0.3640 hn        1 MOL      0.050164
    172 H81         4.0430    2.4540    0.8080 h1        1 MOL      0.052208
    173 H82         2.1060    0.9440    1.7980 hc        1 MOL      0.003697
    174 H83         2.7610   -0.1770    0.6250 hc        1 MOL      0.003697
    175 H84         2.3570    1.6390   -1.1580 hc        1 MOL     -0.009154
    176 H85         1.6000    2.6200   -0.0840 hc        1 MOL     -0.009154
    177 N15         5.2460    0.0420    2.5900 n         1 MOL     -0.114659
    178 C54         6.1230   -0.1360    3.7740 c3        1 MOL     -0.245183
    179 H86         7.0890   -0.5270    3.4540 h1        1 MOL      0.095859
    180 H87         6.2660    0.8260    4.2680 h1        1 MOL      0.095859
    181 H88         5.6600   -0.8360    4.4680 h1        1 MOL      0.095859
    182 H89         5.0700   -0.7430    1.9750 hn        1 MOL      0.140973
    183 Ca1        -2.0080   -0.5690   -1.4220 Ca        1 MOL      1.705585
    184 O25        -0.9710   -0.4400   -3.7500 oh        1 MOL     -0.855559
    185 H90        -0.6350   -0.9640   -4.4750 ho        1 MOL      0.395295
    186 H91        -1.4500    0.2620   -4.1780 ho        1 MOL      0.395295
    187 O26        -1.4490   -3.2780   -2.0770 oh        1 MOL     -0.855559
    188 H92        -1.2560   -3.2400   -3.0110 ho        1 MOL      0.395295
    189 H93        -2.2910   -3.7490   -2.0250 ho        1 MOL      0.395295
@<TRIPOS>BOND
     1    1    2 1   
     2    1    4 1   
     3    1    5 1   
     4    1    6 1   
     5    2    3 2   
     6    2    7 1   
     7    7    8 1   
     8    7   15 1   
     9    8    9 1   
    10    8   11 1   
    11    8   16 1   
    12    9   10 2   
    13    9   19 1   
    14   11   12 1   
    15   11   17 1   
    16   11   18 1   
    17   12   13 1   
    18   12   14 1   
    19   19   20 1   
    20   19   28 1   
    21   20   21 1   
    22   20   23 1   
    23   20   29 1   
    24   21   22 2   
    25   21   41 1   
    26   23   24 1   
    27   23   30 1   
    28   23   31 1   
    29   24   25 1   
    30   24   32 1   
    31   24   33 1   
    32   25   26 1   
    33   25   34 1   
    34   25   35 1   
    35   26   27 1   
    36   26   36 1   
    37   26   37 1   
    38   27   38 1   
    39   27   39 1   
    40   27   40 1   
    41   41   42 1   
    42   41   49 1   
    43   42   43 1   
    44   42   45 1   
    45   42   50 1   
    46   43   44 2   
    47   43   53 1   
    48   45   46 1   
    49   45   51 1   
    50   45   52 1   
    51   46   47 1   
    52   46   48 1   
    53   53   54 1   
    54   53   57 1   
    55   54   55 1   
    56   54   58 1   
    57   54   59 1   
    58   55   56 2   
    59   55   60 1   
    60   60   61 1   
    61   60   68 1   
    62   61   62 1   
    63   61   64 1   
    64   61   69 1   
    65   62   63 2   
    66   62   72 1   
    67   64   65 1   
    68   64   70 1   
    69   64   71 1   
    70   65   66 1   
    71   65   67 1   
    72   72   73 1   
    73   72   76 1   
    74   73   74 1   
    75   73   77 1   
    76   73   78 1   
    77   74   75 2   
    78   74   79 1   
    79   79   80 1   
    80   79   86 1   
    81   80   81 1   
    82   80   83 1   
    83   80   87 1   
    84   81   82 2   
    85   81   93 1   
    86   83   84 1   
    87   83   85 1   
    88   83   88 1   
    89   84   90 1   
    90   84   91 1   
    91   84   92 1   
    92   85   89 1   
    93   93   94 1   
    94   93  101 1   
    95   94   95 1   
    96   94   97 1   
    97   94  102 1   
    98   95   96 2   
    99   95  112 1   
   100   97   98 1   
   101   97   99 1   
   102   97  103 1   
   103   98  100 1   
   104   98  104 1   
   105   98  105 1   
   106   99  106 1   
   107   99  107 1   
   108   99  108 1   
   109  100  109 1   
   110  100  110 1   
   111  100  111 1   
   112  112  113 1   
   113  112  119 1   
   114  113  114 1   
   115  113  116 1   
   116  113  120 1   
   117  114  115 2   
   118  114  126 1   
   119  116  117 1   
   120  116  118 1   
   121  116  121 1   
   122  117  123 1   
   123  117  124 1   
   124  117  125 1   
   125  118  122 1   
   126  126  127 1   
   127  126  133 1   
   128  127  128 1   
   129  127  130 1   
   130  127  134 1   
   131  128  129 2   
   132  128  140 1   
   133  130  131 1   
   134  130  132 1   
   135  130  135 1   
   136  131  137 1   
   137  131  138 1   
   138  131  139 1   
   139  132  136 1   
   140  140  141 1   
   141  140  149 1   
   142  141  142 1   
   143  141  144 1   
   144  141  150 1   
   145  142  143 2   
   146  142  162 1   
   147  144  145 1   
   148  144  151 1   
   149  144  152 1   
   150  145  146 1   
   151  145  153 1   
   152  145  154 1   
   153  146  147 1   
   154  146  155 1   
   155  146  156 1   
   156  147  148 1   
   157  147  157 1   
   158  147  158 1   
   159  148  159 1   
   160  148  160 1   
   161  148  161 1   
   162  162  163 1   
   163  162  171 1   
   164  163  164 1   
   165  163  166 1   
   166  163  172 1   
   167  164  165 2   
   168  164  177 1   
   169  166  167 1   
   170  166  173 1   
   171  166  174 1   
   172  167  168 1   
   173  167  175 1   
   174  167  176 1   
   175  168  169 1   
   176  168  170 1   
   177  177  178 1   
   178  177  182 1   
   179  178  179 1   
   180  178  180 1   
   181  178  181 1   
   182  184  185 1   
   183  184  186 1   
   184  187  188 1   
   185  187  189 1   
@<TRIPOS>SUBSTRUCTURE
     1 MOL         1 TEMP              0 ****  ****    0 ROOT
