@<TRIPOS>MOLECULE
MOL
  175   173     1     0     0
SMALL
resp


@<TRIPOS>ATOM
      1 C1          0.4820    4.2550    5.3590 c3        1 MOL     -0.453911
      2 C2         -0.1000    3.9730    4.0230 c         1 MOL      0.777015
      3 O1          0.6630    4.0250    3.0500 o         1 MOL     -0.585378
      4 H1          0.9330    3.3460    5.7580 hc        1 MOL      0.110399
      5 H2          1.2450    5.0290    5.2680 hc        1 MOL      0.110399
      6 H3         -0.3040    4.5960    6.0330 hc        1 MOL      0.110399
      7 N1         -1.3850    3.6970    3.9210 n         1 MOL     -0.718998
      8 C3         -1.9240    3.4190    2.5940 c3        1 MOL      0.297760
      9 C4         -1.9200    4.6740    1.6930 c         1 MOL      0.612180
     10 O2         -2.1130    5.7680    2.2040 o         1 MOL     -0.574940
     11 C5         -3.3080    2.7370    2.7720 c3        1 MOL     -0.287021
     12 C6         -3.9580    2.4670    1.4070 c         1 MOL      0.715202
     13 O3         -5.1530    2.8580    1.3350 o         1 MOL     -0.651531
     14 O4         -3.2890    1.9750    0.4580 o         1 MOL     -0.651531
     15 H4         -1.9790    3.6590    4.7370 hn        1 MOL      0.354832
     16 H5         -1.3570    2.6630    2.0580 h1        1 MOL     -0.053181
     17 H6         -3.9430    3.4460    3.3090 hc        1 MOL      0.045495
     18 H7         -3.3340    1.8230    3.3530 hc        1 MOL      0.045495
     19 N2         -1.8990    4.4650    0.3470 n         1 MOL     -0.552259
     20 C7         -2.0540    5.5800   -0.6320 c3        1 MOL      0.130188
     21 C8         -3.0730    5.1070   -1.8100 c         1 MOL      0.527497
     22 O5         -3.2240    5.8920   -2.7340 o         1 MOL     -0.582831
     23 C9         -0.6500    5.8750   -1.1280 c3        1 MOL     -0.087064
     24 H8         -1.6740    3.5410   -0.0040 hn        1 MOL      0.380403
     25 H9         -2.4810    6.4850   -0.2100 h1        1 MOL      0.060515
     26 H10        -0.2420    6.6040   -0.4370 hc        1 MOL      0.019862
     27 H11        -0.0010    5.0080   -1.2060 hc        1 MOL      0.019862
     28 H12        -0.5830    6.4380   -2.0670 hc        1 MOL      0.019862
     29 N3         -3.8010    3.9870   -1.6920 n         1 MOL     -0.415507
     30 C10        -4.7120    3.5140   -2.7750 c3        1 MOL      0.177532
     31 C11        -6.0380    2.9190   -2.3150 c         1 MOL      0.309515
     32 O6         -6.9850    3.0900   -3.0470 o         1 MOL     -0.548705
     33 C12        -3.9280    2.5710   -3.6510 c3        1 MOL     -0.176180
     34 C13        -3.2050    1.3970   -2.9000 c         1 MOL      0.729194
     35 O7         -3.9360    0.5580   -2.3330 o         1 MOL     -0.725909
     36 O8         -1.9670    1.3230   -2.8510 o         1 MOL     -0.725909
     37 H13        -3.5850    3.3620   -0.9240 hn        1 MOL      0.196563
     38 H14        -4.8430    4.3380   -3.4720 h1        1 MOL      0.060889
     39 H15        -3.1080    3.1410   -4.0940 hc        1 MOL      0.043219
     40 H16        -4.5260    2.1310   -4.4470 hc        1 MOL      0.043219
     41 N4         -6.1290    2.1520   -1.1970 n         1 MOL      0.068126
     42 C14        -7.3570    1.3710   -0.6910 c3        1 MOL     -0.247644
     43 C15        -7.5380   -0.0800   -1.2550 c         1 MOL      0.493201
     44 O9         -8.6400   -0.6560   -1.1840 o         1 MOL     -0.579748
     45 H17        -5.3820    2.2230   -0.5260 hn        1 MOL      0.018138
     46 H18        -8.2240    1.9800   -0.9450 h1        1 MOL      0.112897
     47 H19        -7.2340    1.3590    0.3890 h1        1 MOL      0.112897
     48 N5         -6.4360   -0.7360   -1.7430 n         1 MOL     -0.156872
     49 C16        -6.4090   -2.1340   -2.1260 c3        1 MOL     -0.031237
     50 C17        -6.4360   -3.1350   -0.8670 c         1 MOL      0.534076
     51 O10        -6.7420   -4.3350   -1.0580 o         1 MOL     -0.546071
     52 C18        -5.2370   -2.3950   -3.0630 c3        1 MOL     -0.081886
     53 C19        -3.7860   -2.3620   -2.3890 c         1 MOL      0.563238
     54 N6         -2.7400   -2.4140   -3.1090 n         1 MOL     -0.606291
     55 O11        -3.6330   -2.3060   -1.1620 o         1 MOL     -0.571347
     56 H20        -5.5740   -0.2150   -1.8650 hn        1 MOL      0.101035
     57 H21        -7.3340   -2.4070   -2.6410 h1        1 MOL      0.079326
     58 H22        -5.3110   -1.7760   -3.9480 hc        1 MOL      0.037783
     59 H23        -5.4130   -3.4050   -3.4240 hc        1 MOL      0.037783
     60 H24        -2.8490   -2.4380   -4.1050 hn        1 MOL      0.314121
     61 H25        -1.8520   -2.3870   -2.6470 hn        1 MOL      0.314121
     62 N7         -6.1430   -2.6010    0.3660 n         1 MOL     -0.357684
     63 C20        -6.2300   -3.3810    1.7000 c3        1 MOL     -0.238647
     64 C21        -5.0290   -4.1890    2.0770 c         1 MOL      0.502537
     65 O12        -4.9810   -4.9130    3.0270 o         1 MOL     -0.559775
     66 H26        -6.0110   -1.5980    0.4770 hn        1 MOL      0.269415
     67 H27        -7.0180   -4.1360    1.5710 h1        1 MOL      0.124165
     68 H28        -6.5760   -2.6780    2.4620 h1        1 MOL      0.124165
     69 N8         -3.9640   -3.8890    1.3510 n         1 MOL     -0.204824
     70 C22        -2.6500   -4.4410    1.5850 c3        1 MOL      0.014413
     71 C23        -1.4950   -3.3910    1.4950 c         1 MOL      0.341717
     72 O13        -1.5960   -2.4200    0.7260 o         1 MOL     -0.405724
     73 C24        -2.3930   -5.5690    0.5590 c3        1 MOL      0.478875
     74 C25        -3.5630   -6.5140    0.4780 c3        1 MOL     -0.513193
     75 O14        -2.2310   -5.1090   -0.7760 oh        1 MOL     -0.629451
     76 H29        -4.0200   -3.2570    0.5610 hn        1 MOL      0.209974
     77 H30        -2.6600   -4.9190    2.5660 h1        1 MOL      0.031125
     78 H31        -1.5060   -6.0920    0.8990 h1        1 MOL     -0.063364
     79 H32        -1.4910   -4.5120   -0.8960 ho        1 MOL      0.391661
     80 H33        -3.4500   -7.2470   -0.3160 hc        1 MOL      0.132487
     81 H34        -3.7120   -6.9910    1.4450 hc        1 MOL      0.132487
     82 H35        -4.4730   -5.9910    0.1660 hc        1 MOL      0.132487
     83 N9         -0.3700   -3.6320    2.2590 n         1 MOL     -0.407073
     84 C26         0.8330   -2.7980    2.2120 c3        1 MOL      0.021308
     85 C27         1.5500   -3.0490    0.9070 c         1 MOL      0.528479
     86 O15         1.9270   -4.2210    0.5710 o         1 MOL     -0.586311
     87 C28         1.6730   -2.8670    3.5570 c3        1 MOL     -0.115787
     88 C29         1.0090   -1.8290    4.4960 c3        1 MOL      0.125895
     89 C30         3.0840   -2.2510    3.2740 c3        1 MOL     -0.030505
     90 C31         1.5860   -1.9030    5.8940 c3        1 MOL     -0.128805
     91 H36        -0.3250   -4.5270    2.7030 hn        1 MOL      0.277259
     92 H37         0.4860   -1.7650    2.2000 h1        1 MOL      0.061257
     93 H38         1.7740   -3.8390    4.0350 hc        1 MOL      0.074263
     94 H39        -0.0700   -1.9570    4.5590 hc        1 MOL     -0.019135
     95 H40         1.1150   -0.8410    4.0580 hc        1 MOL     -0.019135
     96 H41         3.6890   -2.1890    4.1760 hc        1 MOL      0.005597
     97 H42         3.6940   -2.9160    2.6730 hc        1 MOL      0.005597
     98 H43         2.9470   -1.2810    2.7750 hc        1 MOL      0.005597
     99 H44         1.4430   -2.9540    6.1650 hc        1 MOL      0.020896
    100 H45         2.6190   -1.5850    6.0070 hc        1 MOL      0.020896
    101 H46         1.0560   -1.3060    6.6450 hc        1 MOL      0.020896
    102 N10         1.6660   -2.0050    0.0300 n         1 MOL     -0.264523
    103 C32         2.5770   -2.1480   -1.0760 c3        1 MOL      0.140291
    104 C33         3.9760   -1.6540   -0.7670 c         1 MOL      0.368827
    105 O16         4.2150   -0.8830    0.1730 o         1 MOL     -0.317895
    106 C34         1.9970   -1.2900   -2.2520 c3        1 MOL     -0.292521
    107 C35         0.6220   -1.7550   -2.6820 c         1 MOL      0.747902
    108 O17        -0.3760   -1.4930   -1.9760 o         1 MOL     -0.681508
    109 O18         0.4900   -2.4150   -3.7460 o         1 MOL     -0.681508
    110 H47         1.4370   -1.0610    0.3100 hn        1 MOL      0.104322
    111 H48         2.6440   -3.1600   -1.4540 h1        1 MOL      0.062414
    112 H49         2.6670   -1.3150   -3.1020 hc        1 MOL      0.053292
    113 H50         1.8780   -0.2740   -1.8620 hc        1 MOL      0.053292
    114 N11         4.9470   -2.0580   -1.5240 n         1 MOL     -0.669813
    115 C36         6.3560   -1.6010   -1.2570 c3        1 MOL      0.635090
    116 C37         6.6170   -0.0320   -1.0460 c         1 MOL      0.154748
    117 O19         7.4080    0.2450   -0.1540 o         1 MOL     -0.461527
    118 C38         7.1930   -2.2570   -2.2550 c3        1 MOL     -0.243996
    119 C39         8.6750   -2.0070   -2.1680 ca        1 MOL      0.218024
    120 C40         9.4390   -2.3860   -1.0180 ca        1 MOL     -0.303150
    121 C41         9.3230   -1.4110   -3.3190 ca        1 MOL     -0.303150
    122 C42        10.8440   -2.0300   -0.9650 ca        1 MOL     -0.005686
    123 C43        10.6920   -1.0670   -3.1800 ca        1 MOL     -0.005686
    124 C44        11.4200   -1.3360   -2.0300 ca        1 MOL     -0.199282
    125 H51         4.6830   -2.6310   -2.3240 hn        1 MOL      0.345553
    126 H52         6.6490   -2.0590   -0.3130 h1        1 MOL     -0.020263
    127 H53         6.8630   -2.0450   -3.2760 hc        1 MOL      0.040011
    128 H54         7.0260   -3.3210   -2.1160 hc        1 MOL      0.040011
    129 H55         9.0200   -2.9580   -0.2030 ha        1 MOL      0.157914
    130 H56         8.7750   -1.2420   -4.2340 ha        1 MOL      0.157914
    131 H57        11.4230   -2.3730   -0.1220 ha        1 MOL      0.089352
    132 H58        11.1580   -0.5610   -4.0150 ha        1 MOL      0.089352
    133 H59        12.4560   -1.0220   -1.9830 ha        1 MOL      0.112640
    134 N12         6.0360    0.9270   -1.7800 n         1 MOL     -0.027038
    135 C45         6.2820    2.3520   -1.4740 c3        1 MOL      0.059338
    136 C46         5.6490    2.7770   -0.1030 c         1 MOL      0.237666
    137 O20         6.0390    3.8180    0.4460 o         1 MOL     -0.495318
    138 C47         5.7570    3.1360   -2.6890 c3        1 MOL      0.048385
    139 C48         5.5000    2.0570   -3.7820 c3        1 MOL     -0.170489
    140 C49         5.1760    0.8060   -2.9740 c3        1 MOL     -0.193194
    141 H60         7.3430    2.5980   -1.4830 h1        1 MOL      0.070913
    142 H61         4.8090    3.5200   -2.3290 hc        1 MOL      0.024088
    143 H62         6.4000    4.0030   -2.8800 hc        1 MOL      0.024088
    144 H63         4.6630    2.4650   -4.3550 hc        1 MOL      0.060351
    145 H64         6.3920    1.9720   -4.3990 hc        1 MOL      0.060351
    146 H65         4.1340    0.9960   -2.7050 h1        1 MOL      0.134168
    147 H66         5.2590   -0.1420   -3.5210 h1        1 MOL      0.134168
    148 N13         4.7930    1.9110    0.4780 n         1 MOL      0.035669
    149 C50         4.0650    2.1790    1.7220 c3        1 MOL     -0.046128
    150 C51         4.7760    1.5220    2.9130 c         1 MOL      0.446962
    151 O21         4.9270    2.1390    3.9790 o         1 MOL     -0.563927
    152 C52         2.6250    1.6430    1.7540 c3        1 MOL      0.025304
    153 C53         1.8240    2.1400    0.5480 c3        1 MOL      0.022561
    154 C54         0.4640    1.4440    0.4710 c         1 MOL      0.587656
    155 O22         0.2470    0.2960    0.8970 o         1 MOL     -0.659575
    156 O23        -0.4420    2.0380   -0.1150 o         1 MOL     -0.659575
    157 H67         4.4570    1.1420   -0.0790 hn        1 MOL      0.019377
    158 H68         4.0320    3.2490    1.9240 h1        1 MOL      0.079840
    159 H69         2.1800    1.8590    2.7220 hc        1 MOL      0.033202
    160 H70         2.7030    0.5570    1.6590 hc        1 MOL      0.033202
    161 H71         2.3300    2.0530   -0.4100 hc        1 MOL      0.020802
    162 H72         1.6350    3.1950    0.7140 hc        1 MOL      0.020802
    163 N14         5.3540    0.3260    2.6880 n         1 MOL     -0.128069
    164 C55         6.5020   -0.2490    3.3360 c3        1 MOL     -0.143821
    165 H73         6.2460   -1.2370    3.7190 h1        1 MOL      0.065111
    166 H74         7.3180   -0.3380    2.6180 h1        1 MOL      0.065111
    167 H75         6.8120    0.3910    4.1620 h1        1 MOL      0.065111
    168 H76         5.0490   -0.1120    1.8320 hn        1 MOL      0.099484
    169 Ca1        -2.0420   -0.1060   -0.4660 Ca        1 MOL      1.678827
    170 O24        -3.8980   -0.7620    1.3750 oh        1 MOL     -0.794571
    171 H77        -3.2500   -0.7050    2.0760 ho        1 MOL      0.389244
    172 H78        -4.7350   -0.5610    1.8060 ho        1 MOL      0.389244
    173 O25        -1.5570   -0.1010    2.7080 oh        1 MOL     -0.794571
    174 H79        -1.5970    0.5220    3.4330 ho        1 MOL      0.389244
    175 H80        -0.7470    0.1160    2.2410 ho        1 MOL      0.389244
@<TRIPOS>BOND
     1    1    2 1   
     2    1    4 1   
     3    1    5 1   
     4    1    6 1   
     5    2    3 2   
     6    2    7 1   
     7    7    8 1   
     8    7   15 1   
     9    8    9 1   
    10    8   11 1   
    11    8   16 1   
    12    9   10 2   
    13    9   19 1   
    14   11   12 1   
    15   11   17 1   
    16   11   18 1   
    17   12   13 1   
    18   12   14 1   
    19   19   20 1   
    20   19   24 1   
    21   20   21 1   
    22   20   23 1   
    23   20   25 1   
    24   21   22 2   
    25   21   29 1   
    26   23   26 1   
    27   23   27 1   
    28   23   28 1   
    29   29   30 1   
    30   29   37 1   
    31   30   31 1   
    32   30   33 1   
    33   30   38 1   
    34   31   32 2   
    35   31   41 1   
    36   33   34 1   
    37   33   39 1   
    38   33   40 1   
    39   34   35 1   
    40   34   36 1   
    41   41   42 1   
    42   41   45 1   
    43   42   43 1   
    44   42   46 1   
    45   42   47 1   
    46   43   44 2   
    47   43   48 1   
    48   48   49 1   
    49   48   56 1   
    50   49   50 1   
    51   49   52 1   
    52   49   57 1   
    53   50   51 2   
    54   50   62 1   
    55   52   53 1   
    56   52   58 1   
    57   52   59 1   
    58   53   54 1   
    59   53   55 2   
    60   54   60 1   
    61   54   61 1   
    62   62   63 1   
    63   62   66 1   
    64   63   64 1   
    65   63   67 1   
    66   63   68 1   
    67   64   65 2   
    68   64   69 1   
    69   69   70 1   
    70   69   76 1   
    71   70   71 1   
    72   70   73 1   
    73   70   77 1   
    74   71   72 2   
    75   71   83 1   
    76   73   74 1   
    77   73   75 1   
    78   73   78 1   
    79   74   80 1   
    80   74   81 1   
    81   74   82 1   
    82   75   79 1   
    83   83   84 1   
    84   83   91 1   
    85   84   85 1   
    86   84   87 1   
    87   84   92 1   
    88   85   86 2   
    89   85  102 1   
    90   87   88 1   
    91   87   89 1   
    92   87   93 1   
    93   88   90 1   
    94   88   94 1   
    95   88   95 1   
    96   89   96 1   
    97   89   97 1   
    98   89   98 1   
    99   90   99 1   
   100   90  100 1   
   101   90  101 1   
   102  102  103 1   
   103  102  110 1   
   104  103  104 1   
   105  103  106 1   
   106  103  111 1   
   107  104  105 2   
   108  104  114 1   
   109  106  107 1   
   110  106  112 1   
   111  106  113 1   
   112  107  108 1   
   113  107  109 1   
   114  114  115 1   
   115  114  125 1   
   116  115  116 1   
   117  115  118 1   
   118  115  126 1   
   119  116  117 2   
   120  116  134 1   
   121  118  119 1   
   122  118  127 1   
   123  118  128 1   
   124  119  120 ar  
   125  119  121 ar  
   126  120  122 ar  
   127  120  129 1   
   128  121  123 ar  
   129  121  130 1   
   130  122  124 ar  
   131  122  131 1   
   132  123  124 ar  
   133  123  132 1   
   134  124  133 1   
   135  134  135 1   
   136  134  140 1   
   137  135  136 1   
   138  135  138 1   
   139  135  141 1   
   140  136  137 2   
   141  136  148 1   
   142  138  139 1   
   143  138  142 1   
   144  138  143 1   
   145  139  140 1   
   146  139  144 1   
   147  139  145 1   
   148  140  146 1   
   149  140  147 1   
   150  148  149 1   
   151  148  157 1   
   152  149  150 1   
   153  149  152 1   
   154  149  158 1   
   155  150  151 2   
   156  150  163 1   
   157  152  153 1   
   158  152  159 1   
   159  152  160 1   
   160  153  154 1   
   161  153  161 1   
   162  153  162 1   
   163  154  155 1   
   164  154  156 1   
   165  163  164 1   
   166  163  168 1   
   167  164  165 1   
   168  164  166 1   
   169  164  167 1   
   170  170  171 1   
   171  170  172 1   
   172  173  174 1   
   173  173  175 1   
@<TRIPOS>SUBSTRUCTURE
     1 MOL         1 TEMP              0 ****  ****    0 ROOT
