@<TRIPOS>MOLECULE
MOL
  175   173     1     0     0
SMALL
resp


@<TRIPOS>ATOM
      1 C1         -0.9470    4.8640    5.0800 c3        1 MOL     -0.245553
      2 C2         -1.1630    4.1030    3.7250 c         1 MOL      0.732634
      3 O1         -0.2740    4.1240    2.8350 o         1 MOL     -0.567462
      4 H1         -1.0370    4.1620    5.9090 hc        1 MOL      0.052331
      5 H2          0.0470    5.3120    5.0910 hc        1 MOL      0.052331
      6 H3         -1.7000    5.6460    5.1830 hc        1 MOL      0.052331
      7 N1         -2.3760    3.4860    3.5880 n         1 MOL     -0.659421
      8 C3         -2.7670    2.8010    2.3490 c3        1 MOL      0.073014
      9 C4         -3.0970    3.7960    1.3080 c         1 MOL      0.693524
     10 O2         -4.0480    4.5130    1.5510 o         1 MOL     -0.604435
     11 C5         -3.8920    1.7310    2.5240 c3        1 MOL      0.022138
     12 C6         -4.3710    0.8930    1.3010 c         1 MOL      0.609607
     13 O3         -5.1740    0.0210    1.6290 o         1 MOL     -0.705189
     14 O4         -3.8960    1.1420    0.1420 o         1 MOL     -0.705189
     15 H4         -3.1220    3.6410    4.2450 hn        1 MOL      0.335364
     16 H5         -1.9180    2.2400    1.9570 h1        1 MOL     -0.036285
     17 H6         -4.7480    2.3160    2.8560 hc        1 MOL     -0.006413
     18 H7         -3.6130    1.0760    3.3500 hc        1 MOL     -0.006413
     19 N2         -2.2510    3.8680    0.2570 n         1 MOL     -0.402646
     20 C7         -2.3710    4.9400   -0.8010 c3        1 MOL      0.131278
     21 C8         -3.5470    4.7440   -1.8260 c         1 MOL      0.353500
     22 O5         -3.4870    5.3390   -2.9330 o         1 MOL     -0.507708
     23 C9         -1.0080    4.9020   -1.4950 c3        1 MOL     -0.444897
     24 H8         -1.4160    3.3000    0.1490 hn        1 MOL      0.278463
     25 H9         -2.4810    5.8460   -0.2030 h1        1 MOL      0.050221
     26 H10        -0.8860    5.6520   -2.2740 hc        1 MOL      0.142275
     27 H11        -0.3220    5.0230   -0.6570 hc        1 MOL      0.142275
     28 H12        -0.8410    3.9040   -1.8890 hc        1 MOL      0.142275
     29 N3         -4.5540    3.9460   -1.5050 n         1 MOL     -0.143334
     30 C10        -5.5510    3.4520   -2.4760 c3        1 MOL     -0.127144
     31 C11        -6.7610    2.7580   -1.9220 c         1 MOL      0.549995
     32 O6         -7.8370    2.7760   -2.5110 o         1 MOL     -0.568415
     33 C12        -4.8700    2.5580   -3.5170 c3        1 MOL     -0.022928
     34 C13        -4.0020    1.4540   -2.9860 c         1 MOL      0.625215
     35 O7         -4.4530    0.4240   -2.4930 o         1 MOL     -0.665310
     36 O8         -2.7950    1.6320   -3.0210 o         1 MOL     -0.665310
     37 H13        -4.5220    3.6100   -0.5500 hn        1 MOL      0.023267
     38 H14        -5.8820    4.3150   -3.0500 h1        1 MOL      0.093949
     39 H15        -4.2180    3.1130   -4.1860 hc        1 MOL      0.027265
     40 H16        -5.5730    2.0320   -4.1710 hc        1 MOL      0.027265
     41 N4         -6.6220    2.0390   -0.8020 n         1 MOL     -0.289930
     42 C14        -7.6210    1.2750   -0.0850 c3        1 MOL     -0.176515
     43 C15        -7.8610   -0.2180   -0.3560 c         1 MOL      0.504514
     44 O9         -8.9510   -0.7520    0.0440 o         1 MOL     -0.613100
     45 H17        -5.6780    1.8780   -0.4910 hn        1 MOL      0.356026
     46 H18        -8.5830    1.7700   -0.0570 h1        1 MOL      0.102222
     47 H19        -7.3310    1.1980    0.9550 h1        1 MOL      0.102222
     48 N5         -6.9070   -0.8670   -1.0370 n         1 MOL     -0.121297
     49 C16        -6.9220   -2.2550   -1.4680 c3        1 MOL      0.035698
     50 C17        -6.6990   -3.1930   -0.2430 c         1 MOL      0.452571
     51 O10        -6.5910   -4.4300   -0.3670 o         1 MOL     -0.559887
     52 C18        -6.0200   -2.4310   -2.7270 c3        1 MOL     -0.337871
     53 C19        -4.6040   -3.0590   -2.4320 c         1 MOL      0.590883
     54 N6         -4.3710   -4.2840   -2.7500 n         1 MOL     -0.668810
     55 O11        -3.7090   -2.4470   -1.8390 o         1 MOL     -0.523824
     56 H20        -6.0920   -0.3480   -1.3120 hn        1 MOL      0.042996
     57 H21        -7.9650   -2.5170   -1.6510 h1        1 MOL      0.087268
     58 H22        -5.8790   -1.4780   -3.2440 hc        1 MOL      0.117994
     59 H23        -6.5180   -3.1940   -3.3250 hc        1 MOL      0.117994
     60 H24        -5.1370   -4.8020   -3.1550 hn        1 MOL      0.330501
     61 H25        -3.5820   -4.8520   -2.4920 hn        1 MOL      0.330501
     62 N7         -6.6130   -2.7170    0.9910 n         1 MOL     -0.285560
     63 C20        -6.4340   -3.5110    2.2260 c3        1 MOL     -0.190696
     64 C21        -5.0330   -3.9120    2.5380 c         1 MOL      0.537557
     65 O12        -4.7750   -4.7610    3.4120 o         1 MOL     -0.615378
     66 H26        -6.6970   -1.7250    1.1150 hn        1 MOL      0.330757
     67 H27        -7.0330   -4.4090    2.0880 h1        1 MOL      0.113346
     68 H28        -6.7790   -2.9730    3.1170 h1        1 MOL      0.113346
     69 N8         -4.0430   -3.3020    1.9710 n         1 MOL     -0.016781
     70 C22        -2.6410   -3.5880    2.3520 c3        1 MOL     -0.192022
     71 C23        -1.7530   -2.4030    2.0860 c         1 MOL      0.509446
     72 O13        -2.1380   -1.4940    1.4360 o         1 MOL     -0.425148
     73 C24        -1.9880   -4.7110    1.5160 c3        1 MOL      0.380534
     74 C25        -2.4920   -6.0570    1.8120 c3        1 MOL     -0.444056
     75 O14        -2.0510   -4.5270    0.1470 oh        1 MOL     -0.647642
     76 H29        -4.2550   -2.5580    1.3250 hn        1 MOL      0.095547
     77 H30        -2.5240   -3.7720    3.4270 h1        1 MOL      0.120221
     78 H31        -0.9240   -4.7090    1.7130 h1        1 MOL      0.043181
     79 H32        -2.0000   -5.3980   -0.2520 ho        1 MOL      0.419082
     80 H33        -3.3270   -6.3240    1.1670 hc        1 MOL      0.109676
     81 H34        -1.6750   -6.7160    1.5330 hc        1 MOL      0.109676
     82 H35        -2.6350   -6.1390    2.8830 hc        1 MOL      0.109676
     83 N9         -0.4940   -2.4280    2.5490 n         1 MOL     -0.431993
     84 C26         0.5610   -1.5880    1.9640 c3        1 MOL     -0.235619
     85 C27         1.6110   -2.3760    1.2080 c         1 MOL      0.467455
     86 O15         1.9620   -3.4480    1.5830 o         1 MOL     -0.554003
     87 C28         1.0970   -0.5200    2.9610 c3        1 MOL      0.235048
     88 C29         1.9600   -1.2370    4.1180 c3        1 MOL     -0.220226
     89 C30        -0.0580    0.2230    3.6700 c3        1 MOL      0.082411
     90 C31         2.5690   -0.1580    5.0370 c3        1 MOL     -0.233104
     91 H36        -0.1770   -3.1290    3.2000 hn        1 MOL      0.272006
     92 H37         0.0790   -1.0300    1.1600 h1        1 MOL      0.032931
     93 H38         1.7650    0.1980    2.4930 hc        1 MOL     -0.098203
     94 H39         2.7780   -1.8080    3.6770 hc        1 MOL      0.075027
     95 H40         1.2790   -1.8740    4.6760 hc        1 MOL      0.075027
     96 H41        -0.8500    0.5380    2.9860 hc        1 MOL     -0.004171
     97 H42        -0.5270   -0.2910    4.5110 hc        1 MOL     -0.004171
     98 H43         0.2480    1.1480    4.1400 hc        1 MOL     -0.004171
     99 H44         3.1930   -0.7130    5.7320 hc        1 MOL      0.058410
    100 H45         3.1450    0.5250    4.4150 hc        1 MOL      0.058410
    101 H46         1.7570    0.3900    5.5050 hc        1 MOL      0.058410
    102 N10         2.1560   -1.7500    0.1760 n         1 MOL     -0.218347
    103 C32         3.2360   -2.2730   -0.6710 c3        1 MOL      0.003697
    104 C33         4.5280   -1.5340   -0.1340 c         1 MOL      0.624776
    105 O16         4.5300   -0.6740    0.7370 o         1 MOL     -0.537747
    106 C34         2.9390   -1.9400   -2.1210 c3        1 MOL     -0.268401
    107 C35         3.9220   -2.6370   -3.0910 c         1 MOL      0.717292
    108 O17         4.4720   -3.7320   -2.7540 o         1 MOL     -0.709152
    109 O18         4.1750   -2.1160   -4.2320 o         1 MOL     -0.709152
    110 H47         1.8270   -0.8330   -0.1120 hn        1 MOL      0.448803
    111 H48         3.3590   -3.3450   -0.5210 h1        1 MOL      0.054749
    112 H49         3.0280   -0.8740   -2.3150 hc        1 MOL      0.042698
    113 H50         1.9460   -2.3110   -2.3670 hc        1 MOL      0.042698
    114 N11         5.6490   -1.9220   -0.6870 n         1 MOL     -0.677931
    115 C36         6.9910   -1.3880   -0.3610 c3        1 MOL      0.504338
    116 C37         7.1590    0.1190   -0.5630 c         1 MOL      0.355439
    117 O19         7.7060    0.7240    0.3310 o         1 MOL     -0.520232
    118 C38         8.1650   -2.1420   -1.0670 c3        1 MOL     -0.246672
    119 C39         9.6260   -1.8060   -0.7270 ca        1 MOL      0.159640
    120 C40         9.9240   -1.7660    0.6750 ca        1 MOL     -0.212993
    121 C41        10.5950   -1.5220   -1.6860 ca        1 MOL     -0.212993
    122 C42        11.2290   -1.4720    1.0620 ca        1 MOL     -0.002798
    123 C43        11.9050   -1.3630   -1.2590 ca        1 MOL     -0.002798
    124 C44        12.2380   -1.3780    0.0750 ca        1 MOL     -0.250501
    125 H51         5.6180   -2.5780   -1.4510 hn        1 MOL      0.297908
    126 H52         7.1360   -1.5900    0.6980 h1        1 MOL      0.023286
    127 H53         7.9290   -2.1300   -2.1310 hc        1 MOL      0.064010
    128 H54         7.9680   -3.1740   -0.7660 hc        1 MOL      0.064010
    129 H55         9.0680   -1.7910    1.3150 ha        1 MOL      0.116230
    130 H56        10.3960   -1.6280   -2.7470 ha        1 MOL      0.116230
    131 H57        11.5480   -1.3770    2.0920 ha        1 MOL      0.078128
    132 H58        12.7130   -1.3260   -1.9850 ha        1 MOL      0.078128
    133 H59        13.2430   -1.2570    0.4370 ha        1 MOL      0.124543
    134 N12         6.6780    0.8390   -1.6350 n         1 MOL     -0.234144
    135 C45         6.6940    2.2650   -1.7050 c3        1 MOL     -0.000791
    136 C46         5.7380    2.8510   -0.6400 c         1 MOL      0.276867
    137 O20         5.8320    4.0260   -0.2930 o         1 MOL     -0.514554
    138 C47         6.2650    2.6790   -3.1460 c3        1 MOL      0.016948
    139 C48         5.5040    1.4570   -3.6220 c3        1 MOL     -0.063490
    140 C49         6.2120    0.2960   -2.8830 c3        1 MOL     -0.037054
    141 H60         7.6760    2.7070   -1.5430 h1        1 MOL      0.079299
    142 H61         5.6500    3.5770   -3.2550 hc        1 MOL      0.022595
    143 H62         7.1740    2.9280   -3.6870 hc        1 MOL      0.022595
    144 H63         4.4560    1.5680   -3.3320 hc        1 MOL      0.033640
    145 H64         5.6390    1.2780   -4.6890 hc        1 MOL      0.033640
    146 H65         5.5270   -0.5130   -2.6180 h1        1 MOL      0.070139
    147 H66         7.0480   -0.0460   -3.4970 h1        1 MOL      0.070139
    148 N13         4.7970    2.0280   -0.1680 n         1 MOL      0.020526
    149 C50         3.8180    2.5660    0.7660 c3        1 MOL     -0.196646
    150 C51         4.3570    2.6110    2.2030 c         1 MOL      0.458781
    151 O21         4.1210    3.5750    2.9440 o         1 MOL     -0.563465
    152 C52         2.4500    1.8140    0.5790 c3        1 MOL      0.085511
    153 C53         1.7240    2.1090   -0.6740 c3        1 MOL     -0.140233
    154 C54         0.4990    1.1990   -0.8070 c         1 MOL      0.686115
    155 O22        -0.5160    1.4690   -0.1160 o         1 MOL     -0.734418
    156 O23         0.3730    0.3140   -1.6680 o         1 MOL     -0.734418
    157 H67         4.9530    1.0460   -0.3370 hn        1 MOL      0.200379
    158 H68         3.5210    3.6120    0.6380 h1        1 MOL      0.117649
    159 H69         1.7500    2.0400    1.3810 hc        1 MOL      0.039048
    160 H70         2.5840    0.7320    0.5230 hc        1 MOL      0.039048
    161 H71         2.3810    2.0390   -1.5320 hc        1 MOL      0.013934
    162 H72         1.3630    3.1380   -0.6710 hc        1 MOL      0.013934
    163 N14         5.2150    1.6720    2.5810 n         1 MOL      0.025433
    164 C55         6.1320    1.6380    3.7220 c3        1 MOL     -0.227401
    165 H73         5.5590    1.5570    4.6450 h1        1 MOL      0.078619
    166 H74         6.7950    0.7780    3.6300 h1        1 MOL      0.078619
    167 H75         6.7240    2.5530    3.7410 h1        1 MOL      0.078619
    168 H76         5.4870    0.9500    1.9250 hn        1 MOL      0.054673
    169 Ca1        -2.3030   -0.2690   -1.2630 Ca        1 MOL      1.715887
    170 O24        -0.8280   -2.5060   -1.2310 oh        1 MOL     -0.818331
    171 H77        -1.2510   -3.1860   -0.7170 ho        1 MOL      0.398224
    172 H78        -0.3980   -2.9820   -1.9530 ho        1 MOL      0.398224
    173 O25        -1.6970   -1.1880   -3.7780 oh        1 MOL     -0.818331
    174 H79        -1.2650   -0.5150   -4.3110 ho        1 MOL      0.398224
    175 H80        -1.4110   -2.0180   -4.1620 ho        1 MOL      0.398224
@<TRIPOS>BOND
     1    1    2 1   
     2    1    4 1   
     3    1    5 1   
     4    1    6 1   
     5    2    3 2   
     6    2    7 1   
     7    7    8 1   
     8    7   15 1   
     9    8    9 1   
    10    8   11 1   
    11    8   16 1   
    12    9   10 2   
    13    9   19 1   
    14   11   12 1   
    15   11   17 1   
    16   11   18 1   
    17   12   13 1   
    18   12   14 1   
    19   19   20 1   
    20   19   24 1   
    21   20   21 1   
    22   20   23 1   
    23   20   25 1   
    24   21   22 2   
    25   21   29 1   
    26   23   26 1   
    27   23   27 1   
    28   23   28 1   
    29   29   30 1   
    30   29   37 1   
    31   30   31 1   
    32   30   33 1   
    33   30   38 1   
    34   31   32 2   
    35   31   41 1   
    36   33   34 1   
    37   33   39 1   
    38   33   40 1   
    39   34   35 1   
    40   34   36 1   
    41   41   42 1   
    42   41   45 1   
    43   42   43 1   
    44   42   46 1   
    45   42   47 1   
    46   43   44 2   
    47   43   48 1   
    48   48   49 1   
    49   48   56 1   
    50   49   50 1   
    51   49   52 1   
    52   49   57 1   
    53   50   51 2   
    54   50   62 1   
    55   52   53 1   
    56   52   58 1   
    57   52   59 1   
    58   53   54 1   
    59   53   55 2   
    60   54   60 1   
    61   54   61 1   
    62   62   63 1   
    63   62   66 1   
    64   63   64 1   
    65   63   67 1   
    66   63   68 1   
    67   64   65 2   
    68   64   69 1   
    69   69   70 1   
    70   69   76 1   
    71   70   71 1   
    72   70   73 1   
    73   70   77 1   
    74   71   72 2   
    75   71   83 1   
    76   73   74 1   
    77   73   75 1   
    78   73   78 1   
    79   74   80 1   
    80   74   81 1   
    81   74   82 1   
    82   75   79 1   
    83   83   84 1   
    84   83   91 1   
    85   84   85 1   
    86   84   87 1   
    87   84   92 1   
    88   85   86 2   
    89   85  102 1   
    90   87   88 1   
    91   87   89 1   
    92   87   93 1   
    93   88   90 1   
    94   88   94 1   
    95   88   95 1   
    96   89   96 1   
    97   89   97 1   
    98   89   98 1   
    99   90   99 1   
   100   90  100 1   
   101   90  101 1   
   102  102  103 1   
   103  102  110 1   
   104  103  104 1   
   105  103  106 1   
   106  103  111 1   
   107  104  105 2   
   108  104  114 1   
   109  106  107 1   
   110  106  112 1   
   111  106  113 1   
   112  107  108 1   
   113  107  109 1   
   114  114  115 1   
   115  114  125 1   
   116  115  116 1   
   117  115  118 1   
   118  115  126 1   
   119  116  117 2   
   120  116  134 1   
   121  118  119 1   
   122  118  127 1   
   123  118  128 1   
   124  119  120 ar  
   125  119  121 ar  
   126  120  122 ar  
   127  120  129 1   
   128  121  123 ar  
   129  121  130 1   
   130  122  124 ar  
   131  122  131 1   
   132  123  124 ar  
   133  123  132 1   
   134  124  133 1   
   135  134  135 1   
   136  134  140 1   
   137  135  136 1   
   138  135  138 1   
   139  135  141 1   
   140  136  137 2   
   141  136  148 1   
   142  138  139 1   
   143  138  142 1   
   144  138  143 1   
   145  139  140 1   
   146  139  144 1   
   147  139  145 1   
   148  140  146 1   
   149  140  147 1   
   150  148  149 1   
   151  148  157 1   
   152  149  150 1   
   153  149  152 1   
   154  149  158 1   
   155  150  151 2   
   156  150  163 1   
   157  152  153 1   
   158  152  159 1   
   159  152  160 1   
   160  153  154 1   
   161  153  161 1   
   162  153  162 1   
   163  154  155 1   
   164  154  156 1   
   165  163  164 1   
   166  163  168 1   
   167  164  165 1   
   168  164  166 1   
   169  164  167 1   
   170  170  171 1   
   171  170  172 1   
   172  173  174 1   
   173  173  175 1   
@<TRIPOS>SUBSTRUCTURE
     1 MOL         1 TEMP              0 ****  ****    0 ROOT
