@<TRIPOS>MOLECULE
MOL
  186   183     1     0     0
SMALL
resp


@<TRIPOS>ATOM
      1 C1          1.5470   -2.8050    6.1980 c3        1 MOL     -0.465025
      2 C2          1.3110   -2.8340    4.6820 c         1 MOL      0.783176
      3 O1          0.6210   -1.9890    4.0560 o         1 MOL     -0.629618
      4 H1          1.6970   -3.8210    6.5620 hc        1 MOL      0.118071
      5 H2          2.4310   -2.2060    6.4170 hc        1 MOL      0.118071
      6 H3          0.6800   -2.3670    6.6920 hc        1 MOL      0.118071
      7 N1          1.9660   -3.7890    4.0660 n         1 MOL     -0.662380
      8 C3          2.4020   -3.5610    2.6790 c3        1 MOL      0.297577
      9 C4          2.3840   -4.8330    1.7450 c         1 MOL      0.426205
     10 O2          2.8640   -5.8810    2.1210 o         1 MOL     -0.577695
     11 C5          3.7840   -2.9570    2.8240 c3        1 MOL     -0.071103
     12 C6          4.4050   -2.4370    1.5440 c         1 MOL      0.687285
     13 O3          3.7780   -2.2750    0.4850 o         1 MOL     -0.671675
     14 O4          5.6440   -2.1850    1.7020 o         1 MOL     -0.671675
     15 H4          2.5410   -4.4140    4.6120 hn        1 MOL      0.326894
     16 H5          1.6750   -2.9190    2.1710 h1        1 MOL      0.017796
     17 H6          4.4400   -3.7030    3.2590 hc        1 MOL     -0.010905
     18 H7          3.7430   -2.1120    3.5160 hc        1 MOL     -0.010905
     19 N2          2.0100   -4.5880    0.4940 n         1 MOL     -0.033618
     20 C7          1.9220   -5.6300   -0.5770 c3        1 MOL     -0.256416
     21 C8          2.7110   -5.2020   -1.8070 c         1 MOL      0.542179
     22 O5          2.7940   -5.9980   -2.7610 o         1 MOL     -0.582962
     23 C9          0.5080   -5.9660   -0.9370 c3        1 MOL      0.244713
     24 C10        -0.1470   -4.7970   -1.6900 c3        1 MOL     -0.064430
     25 C11        -0.2980   -6.2720    0.3960 c3        1 MOL     -0.186804
     26 C12        -1.5770   -5.1920   -2.1250 c3        1 MOL     -0.353914
     27 H8          1.7170   -3.6570    0.2200 hn        1 MOL      0.078665
     28 H9          2.3470   -6.5800   -0.2570 h1        1 MOL      0.115364
     29 H10         0.5460   -6.8700   -1.5330 hc        1 MOL     -0.021120
     30 H11         0.3800   -4.5070   -2.6060 hc        1 MOL      0.084127
     31 H12        -0.2000   -3.9960   -0.9580 hc        1 MOL      0.084127
     32 H13         0.2870   -6.8860    1.0810 hc        1 MOL      0.032464
     33 H14        -0.5450   -5.3700    0.9620 hc        1 MOL      0.032464
     34 H15        -1.1910   -6.8440    0.1330 hc        1 MOL      0.032464
     35 H16        -1.3900   -6.0740   -2.7440 hc        1 MOL      0.088658
     36 H17        -2.3070   -5.2860   -1.3190 hc        1 MOL      0.088658
     37 H18        -1.9320   -4.3640   -2.7410 hc        1 MOL      0.088658
     38 N3          3.3550   -4.0310   -1.7670 n         1 MOL     -0.326019
     39 C13         4.3700   -3.6560   -2.8230 c3        1 MOL     -0.043978
     40 C14         5.7580   -3.0460   -2.5170 c         1 MOL      0.482874
     41 O6          6.6660   -3.1310   -3.3380 o         1 MOL     -0.547611
     42 C15         3.7080   -2.8550   -3.9920 c3        1 MOL     -0.190475
     43 C16         3.2140   -1.4780   -3.4990 c         1 MOL      0.769181
     44 O7          3.4620   -1.0030   -2.3960 o         1 MOL     -0.750201
     45 O8          2.4420   -0.7730   -4.2020 o         1 MOL     -0.750201
     46 H19         3.3960   -3.5470   -0.8800 hn        1 MOL      0.191866
     47 H20         4.6470   -4.5920   -3.3050 h1        1 MOL      0.093961
     48 H21         2.8510   -3.3850   -4.4070 hc        1 MOL      0.072086
     49 H22         4.3850   -2.7480   -4.8400 hc        1 MOL      0.072086
     50 N4          6.0310   -2.4610   -1.2720 n         1 MOL     -0.240506
     51 C17         7.3080   -1.7640   -0.8640 c3        1 MOL     -0.257686
     52 C18         7.5120   -0.3300   -1.3680 c         1 MOL      0.512842
     53 O9          8.5750    0.3150   -1.1600 o         1 MOL     -0.626473
     54 H23         5.2790   -2.2890   -0.6280 hn        1 MOL      0.168816
     55 H24         8.1170   -2.4290   -1.1900 h1        1 MOL      0.130903
     56 H25         7.3470   -1.6840    0.2140 h1        1 MOL      0.130903
     57 N5          6.4360    0.2960   -1.8770 n         1 MOL     -0.114055
     58 C19         6.6240    1.6890   -2.4960 c3        1 MOL     -0.062285
     59 C20         6.7950    2.8680   -1.5800 c         1 MOL      0.490410
     60 O10         6.9880    3.9840   -2.0610 o         1 MOL     -0.561479
     61 C21         5.3500    2.0230   -3.3330 c3        1 MOL     -0.265419
     62 C22         3.9970    2.1350   -2.5830 c         1 MOL      0.941340
     63 O11         3.9780    1.7190   -1.4000 o         1 MOL     -0.755258
     64 O12         3.0780    2.7120   -3.2050 o         1 MOL     -0.755258
     65 H26         5.5100   -0.0870   -1.8100 hn        1 MOL      0.094272
     66 H27         7.4470    1.6460   -3.2030 h1        1 MOL      0.097712
     67 H28         5.3720    1.2170   -4.0650 hc        1 MOL      0.065835
     68 H29         5.5200    2.9740   -3.8320 hc        1 MOL      0.065835
     69 N6          6.6870    2.6230   -0.2880 n         1 MOL     -0.248818
     70 C23         6.9560    3.5780    0.8280 c3        1 MOL     -0.076398
     71 C24         5.6920    4.1650    1.6080 c         1 MOL      0.416750
     72 O13         5.7550    4.9020    2.6310 o         1 MOL     -0.563499
     73 H30         6.3370    1.7120   -0.0240 hn        1 MOL      0.226069
     74 H31         7.6250    4.4090    0.6390 h1        1 MOL      0.082044
     75 H32         7.4760    3.0710    1.6450 h1        1 MOL      0.082044
     76 N7          4.5150    3.7560    1.0470 n         1 MOL     -0.202255
     77 C25         3.2450    4.3480    1.5320 c3        1 MOL     -0.008325
     78 C26         2.1340    3.2560    1.5330 c         1 MOL      0.427168
     79 O14         2.2300    2.2340    0.8350 o         1 MOL     -0.617274
     80 C27         2.8230    5.3750    0.4850 c3        1 MOL     -0.029153
     81 C28         3.5040    6.7240    0.4910 c3        1 MOL     -0.223984
     82 C29         2.7150    7.8780   -0.1280 c         1 MOL      0.636780
     83 N8          2.4720    7.8930   -1.4190 n         1 MOL     -0.815194
     84 O15         2.1970    8.6670    0.6150 o         1 MOL     -0.559519
     85 H33         4.6090    3.1240    0.2620 hn        1 MOL      0.161270
     86 H34         3.3330    4.8000    2.5220 h1        1 MOL      0.082147
     87 H35         1.7600    5.5360    0.6390 hc        1 MOL      0.068560
     88 H36         2.9990    4.9790   -0.5230 hc        1 MOL      0.068560
     89 H37         4.4900    6.6250    0.0550 hc        1 MOL      0.074082
     90 H38         3.6130    7.0380    1.5360 hc        1 MOL      0.074082
     91 H39         2.7270    7.0570   -1.9200 hn        1 MOL      0.374164
     92 H40         2.1400    8.7060   -1.9110 hn        1 MOL      0.374164
     93 N9          1.1420    3.3990    2.4660 n         1 MOL     -0.327126
     94 C30        -0.0500    2.5150    2.6450 c3        1 MOL     -0.010162
     95 C31        -1.1760    3.1440    1.8550 c         1 MOL      0.383823
     96 O16        -1.4750    4.3310    1.9430 o         1 MOL     -0.553831
     97 C32        -0.4330    2.2360    4.1090 c3        1 MOL      0.226200
     98 C33        -1.5850    1.2680    4.2730 c3        1 MOL     -0.241790
     99 C34         0.7350    1.5290    4.8260 c3        1 MOL     -0.241790
    100 H41         1.1200    4.2620    2.9840 hn        1 MOL      0.229479
    101 H42         0.2570    1.6080    2.1290 h1        1 MOL      0.221963
    102 H43        -0.7020    3.1490    4.6400 hc        1 MOL     -0.021448
    103 H44        -1.2920    0.3020    3.8500 hc        1 MOL      0.041584
    104 H45        -1.8170    1.1590    5.3280 hc        1 MOL      0.041584
    105 H46        -2.3610    1.7440    3.6760 hc        1 MOL      0.041584
    106 H47         0.8620    0.4780    4.5770 hc        1 MOL      0.041584
    107 H48         1.6670    2.0320    4.5810 hc        1 MOL      0.041584
    108 H49         0.4990    1.5870    5.8920 hc        1 MOL      0.041584
    109 N10        -1.7700    2.2800    1.0200 n         1 MOL     -0.080449
    110 C35        -2.9950    2.5820    0.2340 c3        1 MOL      0.201356
    111 C36        -4.3120    1.9150    0.7930 c         1 MOL      0.478140
    112 O17        -4.1530    1.0690    1.5880 o         1 MOL     -0.473714
    113 C37        -2.6950    2.5070   -1.2540 c3        1 MOL     -0.437984
    114 C38        -3.0030    1.1600   -1.7800 c         1 MOL      0.753569
    115 N11        -2.1040    0.2730   -2.2800 n         1 MOL     -0.850077
    116 O18        -4.1320    0.8100   -1.8560 o         1 MOL     -0.562565
    117 H50        -1.4700    1.3160    0.9350 hn        1 MOL      0.097458
    118 H51        -3.2000    3.6310    0.4220 h1        1 MOL     -0.023146
    119 H52        -1.6390    2.7140   -1.4360 hc        1 MOL      0.138227
    120 H53        -3.4100    3.1540   -1.7680 hc        1 MOL      0.138227
    121 H54        -1.1110    0.4130   -2.1440 hn        1 MOL      0.408238
    122 H55        -2.5270   -0.6350   -2.4200 hn        1 MOL      0.408238
    123 N12        -5.5400    2.2580    0.4390 n         1 MOL     -0.455374
    124 C39        -6.7700    1.7790    1.0620 c3        1 MOL      0.094856
    125 C40        -7.1150    0.2470    0.7960 c         1 MOL      0.481859
    126 O19        -7.7770   -0.3390    1.6530 o         1 MOL     -0.583991
    127 C41        -7.9540    2.7300    0.7880 c3        1 MOL     -0.327276
    128 C42        -8.1520    3.0090   -0.6480 ca        1 MOL      0.251870
    129 C43        -8.9370    2.1500   -1.4520 ca        1 MOL     -0.313801
    130 C44        -7.5510    4.1350   -1.2480 ca        1 MOL     -0.313801
    131 C45        -8.8310    2.2580   -2.8630 ca        1 MOL     -0.140667
    132 C46        -7.4190    4.2350   -2.5930 ca        1 MOL     -0.140667
    133 C47        -8.0910    3.3150   -3.4150 ca        1 MOL      0.226929
    134 O20        -7.9110    3.3980   -4.7480 oh        1 MOL     -0.493405
    135 H56        -5.5900    2.8250   -0.4010 hn        1 MOL      0.265694
    136 H57        -6.5220    1.8480    2.1210 h1        1 MOL      0.098978
    137 H58        -7.7430    3.6890    1.2480 hc        1 MOL      0.091853
    138 H59        -8.7910    2.2050    1.2470 hc        1 MOL      0.091853
    139 H60        -9.3890    1.2780   -1.0050 ha        1 MOL      0.164574
    140 H61        -6.9800    4.8450   -0.6660 ha        1 MOL      0.164574
    141 H62        -9.2210    1.5070   -3.5320 ha        1 MOL      0.133476
    142 H63        -6.9090    5.0810   -3.0320 ha        1 MOL      0.133476
    143 H64        -8.3850    2.6790   -5.1690 ho        1 MOL      0.390676
    144 N13        -6.4990   -0.3700   -0.1630 n         1 MOL     -0.111490
    145 C48        -6.4450   -1.8300   -0.3600 c3        1 MOL     -0.359395
    146 C49        -5.4380   -2.6410    0.5050 c         1 MOL      0.381506
    147 O21        -5.3450   -3.8870    0.5490 o         1 MOL     -0.504267
    148 C50        -6.1050   -2.0360   -1.7830 c3        1 MOL      0.407395
    149 C51        -7.2430   -1.7690   -2.7790 c3        1 MOL     -0.366242
    150 C52        -7.0240   -2.3080   -4.1940 c         1 MOL      0.631352
    151 O22        -7.3250   -3.5210   -4.3580 o         1 MOL     -0.705176
    152 O23        -6.2700   -1.7520   -5.0120 o         1 MOL     -0.705176
    153 H65        -5.9050    0.1840   -0.7670 hn        1 MOL      0.176248
    154 H66        -7.4520   -2.1750   -0.1540 h1        1 MOL      0.175478
    155 H67        -5.9090   -3.0930   -1.9280 hc        1 MOL     -0.013256
    156 H68        -5.1800   -1.5490   -2.0930 hc        1 MOL     -0.013256
    157 H69        -7.2640   -0.6900   -2.9060 hc        1 MOL      0.031631
    158 H70        -8.1570   -2.0050   -2.2330 hc        1 MOL      0.031631
    159 N14        -4.5760   -1.8630    1.2280 n         1 MOL     -0.104874
    160 C53        -3.6060   -2.2980    2.2050 c3        1 MOL     -0.209718
    161 C54        -4.0580   -2.0470    3.6340 c         1 MOL      0.509994
    162 O24        -3.4980   -2.4350    4.6170 o         1 MOL     -0.548936
    163 C55        -2.2570   -1.5830    1.9750 c3        1 MOL      0.075609
    164 C56        -1.6260   -2.0260    0.6640 c3        1 MOL     -0.008602
    165 C57        -0.3470   -1.2810    0.2980 c         1 MOL      0.774524
    166 O25        -0.2110   -0.0370    0.3770 o         1 MOL     -0.826107
    167 O26         0.6690   -1.9930    0.0020 o         1 MOL     -0.826107
    168 H71        -4.6730   -0.8510    1.1960 hn        1 MOL      0.083150
    169 H72        -3.4640   -3.3740    2.1090 h1        1 MOL      0.126658
    170 H73        -1.5830   -1.9830    2.7210 hc        1 MOL      0.064749
    171 H74        -2.2650   -0.4960    1.9730 hc        1 MOL      0.064749
    172 H75        -2.3290   -1.9360   -0.1600 hc        1 MOL     -0.001433
    173 H76        -1.3210   -3.0810    0.7180 hc        1 MOL     -0.001433
    174 N15        -5.1760   -1.3390    3.8350 n         1 MOL     -0.205733
    175 C58        -5.7000   -1.0200    5.1430 c3        1 MOL     -0.208806
    176 H77        -5.3360   -1.7480    5.8680 h1        1 MOL      0.083936
    177 H78        -5.3690   -0.0230    5.4340 h1        1 MOL      0.083936
    178 H79        -6.7890   -1.0490    5.1160 h1        1 MOL      0.083936
    179 H80        -5.6590   -0.9310    3.0560 hn        1 MOL      0.201549
    180 Ca1         2.3790   -0.1210   -0.2480 Ca        1 MOL      1.809761
    181 O27         2.2510   -0.3010    2.5230 oh        1 MOL     -0.955249
    182 H81         2.8120    0.1660    3.1460 ho        1 MOL      0.456939
    183 H82         1.7300   -0.8810    3.0730 ho        1 MOL      0.456939
    184 O28         1.1850    0.9510   -2.5080 oh        1 MOL     -0.955249
    185 H83         1.6340    1.7530   -2.7780 ho        1 MOL      0.456939
    186 H84         1.5120    0.2740   -3.1120 ho        1 MOL      0.456939
@<TRIPOS>BOND
     1    1    2 1   
     2    1    4 1   
     3    1    5 1   
     4    1    6 1   
     5    2    3 2   
     6    2    7 1   
     7    7    8 1   
     8    7   15 1   
     9    8    9 1   
    10    8   11 1   
    11    8   16 1   
    12    9   10 2   
    13    9   19 1   
    14   11   12 1   
    15   11   17 1   
    16   11   18 1   
    17   12   13 1   
    18   12   14 1   
    19   19   20 1   
    20   19   27 1   
    21   20   21 1   
    22   20   23 1   
    23   20   28 1   
    24   21   22 2   
    25   21   38 1   
    26   23   24 1   
    27   23   25 1   
    28   23   29 1   
    29   24   26 1   
    30   24   30 1   
    31   24   31 1   
    32   25   32 1   
    33   25   33 1   
    34   25   34 1   
    35   26   35 1   
    36   26   36 1   
    37   26   37 1   
    38   38   39 1   
    39   38   46 1   
    40   39   40 1   
    41   39   42 1   
    42   39   47 1   
    43   40   41 2   
    44   40   50 1   
    45   42   43 1   
    46   42   48 1   
    47   42   49 1   
    48   43   44 1   
    49   43   45 1   
    50   50   51 1   
    51   50   54 1   
    52   51   52 1   
    53   51   55 1   
    54   51   56 1   
    55   52   53 2   
    56   52   57 1   
    57   57   58 1   
    58   57   65 1   
    59   58   59 1   
    60   58   61 1   
    61   58   66 1   
    62   59   60 2   
    63   59   69 1   
    64   61   62 1   
    65   61   67 1   
    66   61   68 1   
    67   62   63 1   
    68   62   64 1   
    69   69   70 1   
    70   69   73 1   
    71   70   71 1   
    72   70   74 1   
    73   70   75 1   
    74   71   72 2   
    75   71   76 1   
    76   76   77 1   
    77   76   85 1   
    78   77   78 1   
    79   77   80 1   
    80   77   86 1   
    81   78   79 2   
    82   78   93 1   
    83   80   81 1   
    84   80   87 1   
    85   80   88 1   
    86   81   82 1   
    87   81   89 1   
    88   81   90 1   
    89   82   83 1   
    90   82   84 2   
    91   83   91 1   
    92   83   92 1   
    93   93   94 1   
    94   93  100 1   
    95   94   95 1   
    96   94   97 1   
    97   94  101 1   
    98   95   96 2   
    99   95  109 1   
   100   97   98 1   
   101   97   99 1   
   102   97  102 1   
   103   98  103 1   
   104   98  104 1   
   105   98  105 1   
   106   99  106 1   
   107   99  107 1   
   108   99  108 1   
   109  109  110 1   
   110  109  117 1   
   111  110  111 1   
   112  110  113 1   
   113  110  118 1   
   114  111  112 2   
   115  111  123 1   
   116  113  114 1   
   117  113  119 1   
   118  113  120 1   
   119  114  115 1   
   120  114  116 2   
   121  115  121 1   
   122  115  122 1   
   123  123  124 1   
   124  123  135 1   
   125  124  125 1   
   126  124  127 1   
   127  124  136 1   
   128  125  126 2   
   129  125  144 1   
   130  127  128 1   
   131  127  137 1   
   132  127  138 1   
   133  128  129 ar  
   134  128  130 ar  
   135  129  131 ar  
   136  129  139 1   
   137  130  132 ar  
   138  130  140 1   
   139  131  133 ar  
   140  131  141 1   
   141  132  133 ar  
   142  132  142 1   
   143  133  134 1   
   144  134  143 1   
   145  144  145 1   
   146  144  153 1   
   147  145  146 1   
   148  145  148 1   
   149  145  154 1   
   150  146  147 2   
   151  146  159 1   
   152  148  149 1   
   153  148  155 1   
   154  148  156 1   
   155  149  150 1   
   156  149  157 1   
   157  149  158 1   
   158  150  151 1   
   159  150  152 1   
   160  159  160 1   
   161  159  168 1   
   162  160  161 1   
   163  160  163 1   
   164  160  169 1   
   165  161  162 2   
   166  161  174 1   
   167  163  164 1   
   168  163  170 1   
   169  163  171 1   
   170  164  165 1   
   171  164  172 1   
   172  164  173 1   
   173  165  166 1   
   174  165  167 1   
   175  174  175 1   
   176  174  179 1   
   177  175  176 1   
   178  175  177 1   
   179  175  178 1   
   180  181  182 1   
   181  181  183 1   
   182  184  185 1   
   183  184  186 1   
@<TRIPOS>SUBSTRUCTURE
     1 MOL         1 TEMP              0 ****  ****    0 ROOT
