@<TRIPOS>MOLECULE
MOL
  182   178     1     0     0
SMALL
resp


@<TRIPOS>ATOM
      1 C1          1.9790    3.0700    5.8540 c3        1 MOL     -0.280717
      2 C2          1.7080    2.7050    4.4550 c         1 MOL      0.828983
      3 O1          2.5710    2.7430    3.6380 o         1 MOL     -0.622244
      4 H1          1.0580    3.4150    6.3230 hc        1 MOL      0.064829
      5 H2          2.3540    2.1990    6.3920 hc        1 MOL      0.064829
      6 H3          2.7220    3.8660    5.8860 hc        1 MOL      0.064829
      7 N1          0.4000    2.5600    4.1600 n         1 MOL     -0.711516
      8 C3         -0.1330    2.3830    2.8010 c3        1 MOL      0.028438
      9 C4         -0.2460    3.7940    2.2160 c         1 MOL      0.703043
     10 O2         -0.6270    4.8080    2.8720 o         1 MOL     -0.579203
     11 C5         -1.4370    1.5950    2.9020 c3        1 MOL     -0.324199
     12 C6         -2.3790    1.4510    1.7220 c         1 MOL      1.014091
     13 O3         -2.0110    1.9760    0.6320 o         1 MOL     -0.843274
     14 O4         -3.4970    0.8510    1.8920 o         1 MOL     -0.843274
     15 H4         -0.3020    2.6020    4.8820 hn        1 MOL      0.366259
     16 H5          0.5970    1.8420    2.1910 h1        1 MOL      0.053258
     17 H6         -1.9280    2.2100    3.6640 hc        1 MOL      0.078244
     18 H7         -1.2520    0.6060    3.3240 hc        1 MOL      0.078244
     19 N2         -0.0260    3.9720    0.8930 n         1 MOL     -0.467074
     20 C7          0.2700    5.2190    0.1790 c3        1 MOL      0.016063
     21 C8         -0.9150    5.8030   -0.6090 c         1 MOL      0.458887
     22 O5         -0.9430    6.9880   -0.9430 o         1 MOL     -0.576823
     23 C9          1.4750    5.1230   -0.6270 c3        1 MOL     -0.055653
     24 C10         2.7230    5.4730    0.2310 c3        1 MOL     -0.176904
     25 C11         3.9820    5.2950   -0.5200 c3        1 MOL      0.027682
     26 C12         5.1590    5.8080    0.2880 c3        1 MOL      0.049255
     27 N3          6.3560    5.8220   -0.5700 n4        1 MOL     -0.378632
     28 H8          0.0780    3.1470    0.3210 hn        1 MOL      0.238439
     29 H9          0.4520    6.0080    0.9090 h1        1 MOL      0.081683
     30 H10         1.4670    5.7590   -1.5140 hc        1 MOL      0.061677
     31 H11         1.5760    4.1100   -1.0190 hc        1 MOL      0.061677
     32 H12         2.7900    4.8350    1.1190 hc        1 MOL      0.083178
     33 H13         2.6200    6.5100    0.5590 hc        1 MOL      0.083178
     34 H14         3.8840    5.7310   -1.5210 hc        1 MOL      0.019233
     35 H15         4.1860    4.2630   -0.7870 hc        1 MOL      0.019233
     36 H16         5.2750    5.2510    1.2150 hx        1 MOL      0.091271
     37 H17         4.9430    6.8400    0.5610 hx        1 MOL      0.091271
     38 H18         6.4040    4.9490   -1.0630 hn        1 MOL      0.330669
     39 H19         6.4830    6.5280   -1.2820 hn        1 MOL      0.330669
     40 H20         7.1330    5.9470    0.0660 hn        1 MOL      0.330669
     41 N4         -1.8440    4.9560   -0.9440 n         1 MOL     -0.290726
     42 C13        -2.9900    5.2400   -1.7430 c3        1 MOL      0.024160
     43 C14        -4.3250    4.6390   -1.2530 c         1 MOL      0.294419
     44 O6         -5.3690    4.6250   -1.9930 o         1 MOL     -0.469557
     45 C15        -2.8050    4.7740   -3.1650 c3        1 MOL     -0.327775
     46 C16        -2.7600    3.2560   -3.2470 c         1 MOL      0.788416
     47 O7         -2.4220    2.5650   -2.2080 o         1 MOL     -0.687557
     48 O8         -2.9490    2.6920   -4.3770 o         1 MOL     -0.687557
     49 H21        -1.6350    4.0180   -0.6400 hn        1 MOL      0.309484
     50 H22        -3.1570    6.3020   -1.9120 h1        1 MOL      0.135398
     51 H23        -1.8750    5.2600   -3.4560 hc        1 MOL      0.100789
     52 H24        -3.6280    5.1430   -3.7750 hc        1 MOL      0.100789
     53 N5         -4.3130    4.1600   -0.0020 n         1 MOL     -0.199225
     54 C17        -5.4800    3.8690    0.8430 c3        1 MOL     -0.035162
     55 C18        -6.3020    2.6580    0.4780 c         1 MOL      0.376287
     56 O9         -7.5340    2.6440    0.6060 o         1 MOL     -0.536069
     57 H25        -3.4390    4.3280    0.4600 hn        1 MOL      0.193797
     58 H26        -6.1810    4.7060    0.8980 h1        1 MOL      0.079945
     59 H27        -5.1180    3.8050    1.8660 h1        1 MOL      0.079945
     60 N6         -5.6920    1.6560   -0.2210 n         1 MOL      0.048930
     61 C19        -6.2900    0.5600   -0.9430 c3        1 MOL     -0.162287
     62 C20        -6.5450   -0.6880   -0.0300 c         1 MOL      0.459040
     63 O10        -7.2330   -1.6110   -0.4950 o         1 MOL     -0.496645
     64 C21        -5.3910    0.3460   -2.1910 c3        1 MOL      0.025403
     65 C22        -4.3560   -0.7670   -1.9830 c         1 MOL      0.353491
     66 N7         -4.4260   -1.7900   -2.7850 n         1 MOL     -0.603981
     67 O11        -3.5390   -0.6770   -1.0740 o         1 MOL     -0.458043
     68 H28        -4.6840    1.6560   -0.2960 hn        1 MOL      0.028720
     69 H29        -7.2600    0.8380   -1.3620 h1        1 MOL      0.125884
     70 H30        -4.8780    1.2670   -2.4590 hc        1 MOL      0.046609
     71 H31        -5.9990    0.0830   -3.0480 hc        1 MOL      0.046609
     72 H32        -5.0790   -1.8680   -3.5500 hn        1 MOL      0.323731
     73 H33        -3.7040   -2.4910   -2.8550 hn        1 MOL      0.323731
     74 N8         -6.1310   -0.6600    1.2320 n         1 MOL     -0.426393
     75 C23        -6.2120   -1.8140    2.1280 c3        1 MOL     -0.040899
     76 C24        -4.9700   -2.7350    2.1000 c         1 MOL      0.448834
     77 O12        -5.0710   -3.7740    2.7540 o         1 MOL     -0.537679
     78 H34        -5.6150    0.1470    1.5330 hn        1 MOL      0.333633
     79 H35        -7.0150   -2.5330    1.9750 h1        1 MOL      0.107335
     80 H36        -6.5020   -1.5490    3.1400 h1        1 MOL      0.107335
     81 N9         -3.9210   -2.4160    1.3170 n         1 MOL     -0.306393
     82 C25        -2.7160   -3.2880    1.1930 c3        1 MOL      0.008577
     83 C26        -1.3940   -2.4250    1.1460 c         1 MOL      0.556383
     84 O13        -1.3560   -1.3580    0.5940 o         1 MOL     -0.639666
     85 C27        -2.9700   -4.1920   -0.1100 c3        1 MOL      0.042921
     86 C28        -4.3350   -4.9970   -0.0730 ca        1 MOL     -0.006346
     87 C29        -5.2930   -4.6490   -0.9740 ca        1 MOL     -0.163411
     88 C30        -4.5710   -6.1170    0.8360 ca        1 MOL     -0.163411
     89 C31        -6.6270   -5.1790   -0.8310 ca        1 MOL     -0.318937
     90 C32        -5.7620   -6.8330    0.7150 ca        1 MOL     -0.318937
     91 C33        -6.8290   -6.2710    0.0070 ca        1 MOL      0.459612
     92 O14        -8.0480   -6.7300    0.1040 oh        1 MOL     -0.504528
     93 H37        -3.9410   -1.4940    0.9030 hn        1 MOL      0.311473
     94 H38        -2.6720   -3.9160    2.0850 h1        1 MOL      0.062360
     95 H39        -2.1330   -4.8880   -0.2080 hc        1 MOL     -0.011230
     96 H40        -2.9690   -3.5830   -1.0080 hc        1 MOL     -0.011230
     97 H41        -5.2200   -3.7780   -1.5930 ha        1 MOL      0.155962
     98 H42        -3.8690   -6.4270    1.5860 ha        1 MOL      0.155962
     99 H43        -7.4620   -4.8350   -1.4160 ha        1 MOL      0.151145
    100 H44        -5.9780   -7.6320    1.4070 ha        1 MOL      0.151145
    101 H45        -8.1110   -7.3460    0.8360 ho        1 MOL      0.365059
    102 N10        -0.3810   -2.9150    1.8540 n         1 MOL     -0.400193
    103 C34         1.0230   -2.4940    1.6570 c3        1 MOL     -0.043598
    104 C35         1.7260   -3.4990    0.6350 c         1 MOL      0.378223
    105 O15         1.7640   -4.6800    0.9300 o         1 MOL     -0.521650
    106 C36         1.7960   -2.6060    3.1290 c3        1 MOL      0.029660
    107 C37         1.1130   -1.4780    4.0040 c3        1 MOL      0.008985
    108 C38         3.2990   -2.3480    3.1420 c3        1 MOL     -0.100882
    109 C39         1.7640   -1.2250    5.4210 c3        1 MOL     -0.239536
    110 H46        -0.5130   -3.7460    2.4100 hn        1 MOL      0.284114
    111 H47         1.0550   -1.4610    1.3230 h1        1 MOL      0.103428
    112 H48         1.5600   -3.5430    3.6240 hc        1 MOL      0.049244
    113 H49         0.0390   -1.6200    3.9890 hc        1 MOL      0.022295
    114 H50         1.1960   -0.5570    3.4270 hc        1 MOL      0.022295
    115 H51         3.6900   -2.7410    4.0820 hc        1 MOL      0.023578
    116 H52         3.7970   -2.8680    2.3270 hc        1 MOL      0.023578
    117 H53         3.4640   -1.2790    3.0110 hc        1 MOL      0.023578
    118 H54         1.9490   -2.1850    5.8850 hc        1 MOL      0.063245
    119 H55         2.7090   -0.6960    5.2970 hc        1 MOL      0.063245
    120 H56         1.1330   -0.6000    6.0540 hc        1 MOL      0.063245
    121 N11         2.0550   -3.0260   -0.5040 n         1 MOL     -0.063877
    122 C40         3.0220   -3.6140   -1.4220 c3        1 MOL     -0.228210
    123 C41         4.5010   -3.6350   -0.9590 c         1 MOL      0.574520
    124 O16         4.8030   -2.8970   -0.0150 o         1 MOL     -0.462670
    125 C42         2.7910   -3.1580   -2.8830 c3        1 MOL     -0.086519
    126 O17         2.9200   -1.7950   -2.9710 oh        1 MOL     -0.467171
    127 H57         1.7550   -2.1070   -0.7960 hn        1 MOL      0.285141
    128 H58         2.7560   -4.6740   -1.3960 h1        1 MOL      0.067440
    129 H59         1.7760   -3.2400   -3.2690 h1        1 MOL      0.093538
    130 H60         3.5040   -3.6390   -3.5390 h1        1 MOL      0.093538
    131 H61         2.1800   -1.4110   -2.4980 ho        1 MOL      0.294322
    132 N12         5.2770   -4.5380   -1.5170 n         1 MOL     -0.385159
    133 C43         6.7310   -4.6910   -1.2460 c3        1 MOL      0.015452
    134 C44         7.4780   -3.3400   -1.4620 c         1 MOL      0.410273
    135 O18         8.4820   -3.0660   -0.8250 o         1 MOL     -0.470361
    136 C45         7.3410   -5.8740   -1.9880 c3        1 MOL     -0.155752
    137 H62         4.8450   -5.2560   -2.0770 hn        1 MOL      0.290643
    138 H63         6.8210   -5.1040   -0.2460 h1        1 MOL      0.113221
    139 H64         7.1460   -5.8110   -3.0590 hc        1 MOL      0.065935
    140 H65         8.4040   -5.9540   -1.7500 hc        1 MOL      0.065935
    141 H66         6.8810   -6.7930   -1.6430 hc        1 MOL      0.065935
    142 N13         6.9790   -2.4210   -2.3450 n         1 MOL     -0.314955
    143 C46         7.4950   -1.0860   -2.4930 c3        1 MOL      0.034472
    144 C47         7.1650   -0.0810   -1.3770 c         1 MOL      0.387622
    145 O19         7.9680    0.7180   -0.9580 o         1 MOL     -0.495045
    146 C48         6.9520   -0.5180   -3.8100 c3        1 MOL     -0.177283
    147 H67         6.2560   -2.7840   -2.9390 hn        1 MOL      0.255502
    148 H68         8.5630   -1.0700   -2.6800 h1        1 MOL      0.109538
    149 H69         7.1360   -1.1450   -4.6840 hc        1 MOL      0.053967
    150 H70         5.8730   -0.3400   -3.8290 hc        1 MOL      0.053967
    151 H71         7.4860    0.4150   -4.0290 hc        1 MOL      0.053967
    152 N14         5.9090   -0.1010   -0.7920 n         1 MOL     -0.233086
    153 C49         5.4280    0.6720    0.3190 c3        1 MOL     -0.000919
    154 C50         6.0660    0.2570    1.6780 c         1 MOL      0.440928
    155 O20         6.5780    1.1220    2.3810 o         1 MOL     -0.533520
    156 C51         3.9200    0.4940    0.3050 c3        1 MOL      0.043714
    157 C52         3.1410    1.2210   -0.8530 c3        1 MOL      0.146472
    158 C53         1.7090    0.8250   -0.8330 c         1 MOL      0.693683
    159 O21         0.8700    1.6120   -0.3610 o         1 MOL     -0.726779
    160 O22         1.3080   -0.2860   -1.2240 o         1 MOL     -0.726779
    161 H72         5.2860   -0.7650   -1.2200 hn        1 MOL      0.193012
    162 H73         5.6460    1.7320    0.2380 h1        1 MOL      0.040369
    163 H74         3.5260    1.0040    1.1870 hc        1 MOL      0.019108
    164 H75         3.6780   -0.5660    0.2710 hc        1 MOL      0.019108
    165 H76         3.5810    0.8710   -1.7820 hc        1 MOL     -0.099328
    166 H77         3.2030    2.3100   -0.8510 hc        1 MOL     -0.099328
    167 N15         6.2650   -1.1010    1.9100 n         1 MOL     -0.023121
    168 C54         7.1100   -1.6470    2.9690 c3        1 MOL     -0.302024
    169 H78         8.0400   -2.0170    2.5370 h1        1 MOL      0.112561
    170 H79         7.3320   -0.8660    3.6960 h1        1 MOL      0.112561
    171 H80         6.5890   -2.4670    3.4640 h1        1 MOL      0.112561
    172 H81         5.8820   -1.7250    1.2150 hn        1 MOL      0.094268
    173 Ca1        -1.2250    0.4390   -1.2900 Ca        1 MOL      1.734711
    174 O23        -2.5670    0.1700   -4.1260 oh        1 MOL     -0.773594
    175 H82        -2.6580    1.1060   -4.2970 ho        1 MOL      0.371982
    176 H83        -2.4800   -0.2290   -4.9850 ho        1 MOL      0.371982
    177 O24         0.1580    1.8910   -3.4090 oh        1 MOL     -0.773594
    178 H84         0.5710    1.2060   -3.9340 ho        1 MOL      0.371982
    179 H85         0.8690    2.5190   -3.2380 ho        1 MOL      0.371982
    180 O25        -0.6840   -2.0730   -2.5560 oh        1 MOL     -0.773594
    181 H86        -0.6520   -3.0230   -2.4720 ho        1 MOL      0.371982
    182 H87        -0.9500   -1.9240   -3.4720 ho        1 MOL      0.371982
@<TRIPOS>BOND
     1    1    2 1   
     2    1    4 1   
     3    1    5 1   
     4    1    6 1   
     5    2    3 2   
     6    2    7 1   
     7    7    8 1   
     8    7   15 1   
     9    8    9 1   
    10    8   11 1   
    11    8   16 1   
    12    9   10 2   
    13    9   19 1   
    14   11   12 1   
    15   11   17 1   
    16   11   18 1   
    17   12   13 1   
    18   12   14 1   
    19   19   20 1   
    20   19   28 1   
    21   20   21 1   
    22   20   23 1   
    23   20   29 1   
    24   21   22 2   
    25   21   41 1   
    26   23   24 1   
    27   23   30 1   
    28   23   31 1   
    29   24   25 1   
    30   24   32 1   
    31   24   33 1   
    32   25   26 1   
    33   25   34 1   
    34   25   35 1   
    35   26   27 1   
    36   26   36 1   
    37   26   37 1   
    38   27   38 1   
    39   27   39 1   
    40   27   40 1   
    41   41   42 1   
    42   41   49 1   
    43   42   43 1   
    44   42   45 1   
    45   42   50 1   
    46   43   44 2   
    47   43   53 1   
    48   45   46 1   
    49   45   51 1   
    50   45   52 1   
    51   46   47 1   
    52   46   48 1   
    53   53   54 1   
    54   53   57 1   
    55   54   55 1   
    56   54   58 1   
    57   54   59 1   
    58   55   56 2   
    59   55   60 1   
    60   60   61 1   
    61   60   68 1   
    62   61   62 1   
    63   61   64 1   
    64   61   69 1   
    65   62   63 2   
    66   62   74 1   
    67   64   65 1   
    68   64   70 1   
    69   64   71 1   
    70   65   66 1   
    71   65   67 2   
    72   66   72 1   
    73   66   73 1   
    74   74   75 1   
    75   74   78 1   
    76   75   76 1   
    77   75   79 1   
    78   75   80 1   
    79   76   77 2   
    80   76   81 1   
    81   81   82 1   
    82   81   93 1   
    83   82   83 1   
    84   82   85 1   
    85   82   94 1   
    86   83   84 2   
    87   83  102 1   
    88   85   86 1   
    89   85   95 1   
    90   85   96 1   
    91   86   87 ar  
    92   86   88 ar  
    93   87   89 ar  
    94   87   97 1   
    95   88   90 ar  
    96   88   98 1   
    97   89   91 ar  
    98   89   99 1   
    99   90   91 ar  
   100   90  100 1   
   101   91   92 1   
   102   92  101 1   
   103  102  103 1   
   104  102  110 1   
   105  103  104 1   
   106  103  106 1   
   107  103  111 1   
   108  104  105 2   
   109  104  121 1   
   110  106  107 1   
   111  106  108 1   
   112  106  112 1   
   113  107  109 1   
   114  107  113 1   
   115  107  114 1   
   116  108  115 1   
   117  108  116 1   
   118  108  117 1   
   119  109  118 1   
   120  109  119 1   
   121  109  120 1   
   122  121  122 1   
   123  121  127 1   
   124  122  123 1   
   125  122  125 1   
   126  122  128 1   
   127  123  124 2   
   128  123  132 1   
   129  125  126 1   
   130  125  129 1   
   131  125  130 1   
   132  126  131 1   
   133  132  133 1   
   134  132  137 1   
   135  133  134 1   
   136  133  136 1   
   137  133  138 1   
   138  134  135 2   
   139  134  142 1   
   140  136  139 1   
   141  136  140 1   
   142  136  141 1   
   143  142  143 1   
   144  142  147 1   
   145  143  144 1   
   146  143  146 1   
   147  143  148 1   
   148  144  145 2   
   149  144  152 1   
   150  146  149 1   
   151  146  150 1   
   152  146  151 1   
   153  152  153 1   
   154  152  161 1   
   155  153  154 1   
   156  153  156 1   
   157  153  162 1   
   158  154  155 2   
   159  154  167 1   
   160  156  157 1   
   161  156  163 1   
   162  156  164 1   
   163  157  158 1   
   164  157  165 1   
   165  157  166 1   
   166  158  159 1   
   167  158  160 1   
   168  167  168 1   
   169  167  172 1   
   170  168  169 1   
   171  168  170 1   
   172  168  171 1   
   173  174  175 1   
   174  174  176 1   
   175  177  178 1   
   176  177  179 1   
   177  180  181 1   
   178  180  182 1   
@<TRIPOS>SUBSTRUCTURE
     1 MOL         1 TEMP              0 ****  ****    0 ROOT
