@<TRIPOS>MOLECULE
MOL
  189   185     1     0     0
SMALL
resp


@<TRIPOS>ATOM
      1 C1          0.0590    3.4030   -4.4790 c3        1 MOL     -0.391957
      2 C2          0.6910    2.8950   -3.1820 c         1 MOL      0.602702
      3 O1          0.1550    3.1200   -2.1130 o         1 MOL     -0.518149
      4 H1         -0.8170    2.7980   -4.7170 hc        1 MOL      0.105226
      5 H2         -0.2410    4.4430   -4.3540 hc        1 MOL      0.105226
      6 H3          0.7830    3.3270   -5.2900 hc        1 MOL      0.105226
      7 N1          1.7810    2.1420   -3.2560 n         1 MOL     -0.508908
      8 C3          2.4500    1.5280   -2.1000 c3        1 MOL      0.129446
      9 C4          3.2320    2.6230   -1.2810 c         1 MOL      0.444146
     10 O2          4.4700    2.7330   -1.3130 o         1 MOL     -0.458973
     11 C5          3.4780    0.4760   -2.5280 c3        1 MOL     -0.199671
     12 C6          4.2670   -0.1230   -1.2870 c         1 MOL      0.719662
     13 O3          3.6010   -0.4070   -0.2850 o         1 MOL     -0.689367
     14 O4          5.4810   -0.4370   -1.4130 o         1 MOL     -0.689367
     15 H4          2.1670    1.8460   -4.1480 hn        1 MOL      0.314195
     16 H5          1.7220    0.9970   -1.4780 h1        1 MOL      0.024524
     17 H6          4.1400    0.9930   -3.2160 hc        1 MOL      0.034962
     18 H7          2.9290   -0.3010   -3.0680 hc        1 MOL      0.034962
     19 N2          2.4510    3.5870   -0.7370 n         1 MOL     -0.373941
     20 C7          3.1050    4.8210   -0.3120 c3        1 MOL      0.016271
     21 C8          3.9130    4.6320    0.9900 c         1 MOL      0.340255
     22 O5          4.7950    5.4720    1.2970 o         1 MOL     -0.553094
     23 C9          2.0150    5.8990   -0.1050 c3        1 MOL      0.050162
     24 C10         1.4350    6.4750   -1.4090 c3        1 MOL     -0.124147
     25 C11         2.5970    7.1800   -2.2010 c3        1 MOL      0.015043
     26 C12         3.1970    8.4780   -1.6430 c3        1 MOL      0.119002
     27 N3          4.3720    9.0450   -2.4290 n4        1 MOL     -0.418189
     28 H8          1.5060    3.6160   -1.0730 hn        1 MOL      0.296023
     29 H9          3.8640    5.0190   -1.0700 h1        1 MOL      0.076025
     30 H10         2.5480    6.6680    0.4410 hc        1 MOL      0.015604
     31 H11         1.1980    5.5680    0.5320 hc        1 MOL      0.015604
     32 H12         0.7430    7.2510   -1.1150 hc        1 MOL      0.058754
     33 H13         0.9800    5.6100   -1.9010 hc        1 MOL      0.058754
     34 H14         2.1520    7.5230   -3.1380 hc        1 MOL      0.005912
     35 H15         3.3850    6.5150   -2.5300 hc        1 MOL      0.005912
     36 H16         3.4820    8.1930   -0.6250 hx        1 MOL      0.047953
     37 H17         2.3780    9.1990   -1.5700 hx        1 MOL      0.047953
     38 H18         5.0870    8.3570   -2.6260 hn        1 MOL      0.344030
     39 H19         4.0670    9.4920   -3.2790 hn        1 MOL      0.344030
     40 H20         4.8220    9.8000   -1.9280 hn        1 MOL      0.344030
     41 N4          3.7360    3.5010    1.6970 n         1 MOL     -0.191596
     42 C13         4.6020    3.1380    2.8640 c3        1 MOL      0.142181
     43 C14         5.8260    2.2790    2.4440 c         1 MOL      0.331896
     44 O6          6.6750    2.0460    3.2850 o         1 MOL     -0.497821
     45 C15         3.6900    2.5550    3.9130 c3        1 MOL     -0.425798
     46 C16         2.9090    1.2620    3.5070 c         1 MOL      0.904467
     47 O7          3.1820    0.6310    2.4840 o         1 MOL     -0.755843
     48 O8          1.9240    0.9310    4.2320 o         1 MOL     -0.755843
     49 H21         2.9610    2.8950    1.4630 hn        1 MOL      0.185909
     50 H22         4.9530    4.0830    3.2880 h1        1 MOL      0.084035
     51 H23         3.0700    3.3330    4.3630 hc        1 MOL      0.103460
     52 H24         4.4220    2.1600    4.6190 hc        1 MOL      0.103460
     53 N5          5.9650    1.8440    1.1380 n         1 MOL     -0.107547
     54 C17         7.1290    1.2490    0.6220 c3        1 MOL     -0.115722
     55 C18         7.3210   -0.2670    1.0050 c         1 MOL      0.526066
     56 O9          8.4770   -0.6450    1.1430 o         1 MOL     -0.576032
     57 H25         5.1850    2.1480    0.5830 hn        1 MOL      0.113966
     58 H26         8.0080    1.7990    0.9520 h1        1 MOL      0.075618
     59 H27         7.1600    1.3350   -0.4680 h1        1 MOL      0.075618
     60 N6          6.2310   -1.0230    1.3710 n         1 MOL     -0.292268
     61 C19         6.3330   -2.3340    2.0020 c3        1 MOL      0.069333
     62 C20         6.3860   -3.4330    0.9780 c         1 MOL      0.478535
     63 O10         6.6140   -4.6010    1.4060 o         1 MOL     -0.575525
     64 C21         5.3700   -2.6220    3.1600 c3        1 MOL     -0.355431
     65 C22         3.9270   -2.5900    2.7420 c         1 MOL      0.832850
     66 O11         3.6510   -2.8230    1.5340 o         1 MOL     -0.719702
     67 O12         3.0320   -2.3010    3.5330 o         1 MOL     -0.719702
     68 H28         5.3030   -0.6660    1.1850 hn        1 MOL      0.251247
     69 H29         7.3360   -2.5300    2.3900 h1        1 MOL      0.088336
     70 H30         5.4900   -1.9040    3.9730 hc        1 MOL      0.094854
     71 H31         5.6220   -3.6480    3.4560 hc        1 MOL      0.094854
     72 N7          6.2350   -3.0880   -0.2860 n         1 MOL     -0.350530
     73 C23         6.1660   -4.0490   -1.3530 c3        1 MOL     -0.098269
     74 C24         4.8370   -4.7120   -1.6920 c         1 MOL      0.391114
     75 O13         4.7480   -5.4980   -2.6680 o         1 MOL     -0.580358
     76 H32         5.9970   -2.1320   -0.5070 hn        1 MOL      0.308892
     77 H33         6.9460   -4.7990   -1.2080 h1        1 MOL      0.098284
     78 H34         6.4430   -3.5970   -2.3000 h1        1 MOL      0.098284
     79 N8          3.7620   -4.2620   -1.1050 n         1 MOL     -0.073505
     80 C25         2.4270   -4.6880   -1.4670 c3        1 MOL     -0.127835
     81 C26         1.4860   -3.4590   -1.4420 c         1 MOL      0.655858
     82 O14         1.7240   -2.4520   -0.7960 o         1 MOL     -0.586842
     83 C27         1.9400   -5.7460   -0.5300 c3        1 MOL      0.381140
     84 C28         2.5100   -7.1670   -0.8250 c3        1 MOL     -0.440534
     85 O15         2.1760   -5.4240    0.8420 oh        1 MOL     -0.615289
     86 H35         3.9580   -3.6310   -0.3420 hn        1 MOL      0.172553
     87 H36         2.3220   -5.2190   -2.4190 h1        1 MOL      0.085517
     88 H37         0.8650   -5.9110   -0.6480 h1        1 MOL      0.038228
     89 H38         3.1260   -5.4850    0.9760 ho        1 MOL      0.399169
     90 H39         2.3290   -7.4470   -1.8590 hc        1 MOL      0.113839
     91 H40         3.5930   -7.1410   -0.7140 hc        1 MOL      0.113839
     92 H41         2.1280   -7.9060   -0.1200 hc        1 MOL      0.113839
     93 N9          0.3780   -3.6300   -2.1860 n         1 MOL     -0.658166
     94 C29        -0.7960   -2.6530   -2.1290 c3        1 MOL      0.135798
     95 C30        -2.0140   -3.1820   -1.4440 c         1 MOL      0.482368
     96 O16        -2.4880   -4.2920   -1.7750 o         1 MOL     -0.573976
     97 C31        -1.1490   -1.9200   -3.5320 c3        1 MOL      0.341740
     98 C32         0.0670   -1.3460   -4.2350 c3        1 MOL      0.048183
     99 C33        -2.2030   -0.7890   -3.3560 c3        1 MOL     -0.501385
    100 C34         0.0090   -1.1080   -5.7780 c3        1 MOL     -0.283384
    101 H42         0.2690   -4.5930   -2.4970 hn        1 MOL      0.307109
    102 H43        -0.3890   -1.8520   -1.5050 h1        1 MOL      0.028441
    103 H44        -1.5380   -2.7480   -4.1230 hc        1 MOL     -0.049091
    104 H45         0.8430   -2.0970   -4.1030 hc        1 MOL      0.023293
    105 H46         0.3030   -0.3880   -3.7800 hc        1 MOL      0.023293
    106 H47        -3.1830   -1.1600   -3.0560 hc        1 MOL      0.098725
    107 H48        -1.7540   -0.0620   -2.6800 hc        1 MOL      0.098725
    108 H49        -2.2390   -0.3160   -4.3380 hc        1 MOL      0.098725
    109 H50        -0.9180   -0.6140   -6.0410 hc        1 MOL      0.061293
    110 H51         0.9490   -0.6230   -6.0420 hc        1 MOL      0.061293
    111 H52        -0.0930   -2.0290   -6.3500 hc        1 MOL      0.061293
    112 N10        -2.6410   -2.4260   -0.5250 n         1 MOL     -0.211011
    113 C35        -3.9450   -2.7180    0.0680 c3        1 MOL      0.005582
    114 C36        -5.0820   -2.2240   -0.6920 c         1 MOL      0.279438
    115 O17        -4.9520   -1.2950   -1.5410 o         1 MOL     -0.346814
    116 C37        -3.9730   -2.1800    1.4930 c3        1 MOL      0.206046
    117 C38        -2.8600   -2.8940    2.3080 c3        1 MOL     -0.358668
    118 O18        -3.7430   -0.7540    1.6080 oh        1 MOL     -0.574110
    119 H53        -2.1370   -1.6000   -0.2350 hn        1 MOL      0.179042
    120 H54        -4.0400   -3.7880    0.2330 h1        1 MOL      0.103500
    121 H55        -4.9520   -2.3770    1.9220 h1        1 MOL      0.039789
    122 H56        -2.8040   -0.5400    1.5370 ho        1 MOL      0.423852
    123 H57        -2.9340   -2.4360    3.2980 hc        1 MOL      0.104527
    124 H58        -3.0620   -3.9620    2.3520 hc        1 MOL      0.104527
    125 H59        -1.8520   -2.7150    1.9310 hc        1 MOL      0.104527
    126 N11        -6.3050   -2.7810   -0.5350 n         1 MOL     -0.193443
    127 C39        -7.5980   -2.1450   -0.8550 c3        1 MOL     -0.159225
    128 C40        -7.5910   -0.6290   -0.4140 c         1 MOL      0.413618
    129 O19        -7.8850    0.2620   -1.2190 o         1 MOL     -0.451303
    130 C41        -8.7840   -2.9150   -0.1700 c3        1 MOL      0.368541
    131 C42       -10.0200   -2.5050   -1.0470 c3        1 MOL     -0.329483
    132 O20        -8.5600   -4.3140   -0.2860 oh        1 MOL     -0.586230
    133 H60        -6.2900   -3.6150    0.0310 hn        1 MOL      0.189083
    134 H61        -7.6580   -2.3280   -1.9310 h1        1 MOL      0.156138
    135 H62        -8.8660   -2.6350    0.8810 h1        1 MOL     -0.039127
    136 H63        -9.1490   -4.7750    0.3270 ho        1 MOL      0.389960
    137 H64        -9.9410   -1.5110   -1.4710 hc        1 MOL      0.090955
    138 H65       -10.1870   -3.2330   -1.8360 hc        1 MOL      0.090955
    139 H66       -10.9700   -2.4980   -0.5020 hc        1 MOL      0.090955
    140 N12        -7.0700   -0.3130    0.8300 n         1 MOL     -0.381310
    141 C43        -7.0340    1.1080    1.2820 c3        1 MOL      0.067598
    142 C44        -6.2170    2.0240    0.3610 c         1 MOL      0.407132
    143 O21        -6.6860    3.0160   -0.1050 o         1 MOL     -0.511465
    144 C45        -6.5050    1.0930    2.6680 c3        1 MOL     -0.002488
    145 C46        -7.2680    1.9880    3.6160 c3        1 MOL     -0.054493
    146 C47        -8.8330    1.9870    3.6700 c3        1 MOL     -0.209919
    147 C48        -9.3390    2.9070    4.7750 c3        1 MOL      0.222157
    148 N13       -10.7730    2.8220    4.9100 n4        1 MOL     -0.456974
    149 H67        -6.7990   -1.0820    1.4230 hn        1 MOL      0.261064
    150 H68        -8.0820    1.4040    1.3080 h1        1 MOL      0.067370
    151 H69        -5.4790    1.4850    2.7640 hc        1 MOL      0.040253
    152 H70        -6.6140    0.1150    3.1230 hc        1 MOL      0.040253
    153 H71        -6.9950    3.0140    3.3700 hc        1 MOL      0.052660
    154 H72        -6.8720    1.8460    4.6220 hc        1 MOL      0.052660
    155 H73        -9.2020    0.9860    3.9090 hc        1 MOL      0.066281
    156 H74        -9.2150    2.3760    2.7230 hc        1 MOL      0.066281
    157 H75        -8.9900    3.9270    4.6310 hx        1 MOL      0.042051
    158 H76        -8.7780    2.7190    5.6970 hx        1 MOL      0.042051
    159 H77       -11.1480    3.2340    4.0640 hn        1 MOL      0.322299
    160 H78       -11.0890    1.8620    5.0000 hn        1 MOL      0.322299
    161 H79       -11.0400    3.3470    5.7280 hn        1 MOL      0.322299
    162 N14        -4.9440    1.6840    0.1630 n         1 MOL     -0.016399
    163 C49        -3.9800    2.3650   -0.7530 c3        1 MOL     -0.126810
    164 C50        -4.4950    2.4530   -2.2090 c         1 MOL      0.424304
    165 O22        -4.2880    3.5050   -2.8090 o         1 MOL     -0.544029
    166 C51        -2.6470    1.6130   -0.6640 c3        1 MOL     -0.041389
    167 C52        -1.9420    1.8120    0.7050 c3        1 MOL     -0.370670
    168 C53        -0.8170    0.8100    0.6970 c         1 MOL      0.900532
    169 O23         0.3530    1.2270    0.9360 o         1 MOL     -0.806262
    170 O24        -0.9650   -0.4160    0.7260 o         1 MOL     -0.806262
    171 H80        -4.5820    0.7980    0.4940 hn        1 MOL     -0.128114
    172 H81        -3.8630    3.3990   -0.4430 h1        1 MOL      0.100500
    173 H82        -2.0130    1.9000   -1.4980 hc        1 MOL      0.109051
    174 H83        -2.8180    0.5370   -0.7430 hc        1 MOL      0.109051
    175 H84        -2.5810    1.7110    1.5780 hc        1 MOL      0.122447
    176 H85        -1.5800    2.8320    0.6840 hc        1 MOL      0.122447
    177 N15        -5.1400    1.3780   -2.7320 n         1 MOL     -0.036801
    178 C54        -5.6360    1.3680   -4.0820 c3        1 MOL     -0.143300
    179 H86        -6.5260    0.7410   -4.1370 h1        1 MOL      0.061537
    180 H87        -5.8890    2.3840   -4.3840 h1        1 MOL      0.061537
    181 H88        -4.8710    0.9700   -4.7480 h1        1 MOL      0.061537
    182 H89        -5.2610    0.5420   -2.1700 hn        1 MOL      0.136330
    183 Ca1         1.6690   -1.0190    1.4350 Ca        1 MOL      1.775882
    184 O25         0.4150   -1.1590    3.7470 oh        1 MOL     -0.842854
    185 H90         1.0600   -0.5440    4.0930 ho        1 MOL      0.396387
    186 H91        -0.2510   -1.2120    4.4310 ho        1 MOL      0.396387
    187 O26         0.6820   -3.4750    1.8680 oh        1 MOL     -0.842854
    188 H92         1.3210   -4.1640    1.6980 ho        1 MOL      0.396387
    189 H93         0.4090   -3.6090    2.7750 ho        1 MOL      0.396387
@<TRIPOS>BOND
     1    1    2 1   
     2    1    4 1   
     3    1    5 1   
     4    1    6 1   
     5    2    3 2   
     6    2    7 1   
     7    7    8 1   
     8    7   15 1   
     9    8    9 1   
    10    8   11 1   
    11    8   16 1   
    12    9   10 2   
    13    9   19 1   
    14   11   12 1   
    15   11   17 1   
    16   11   18 1   
    17   12   13 1   
    18   12   14 1   
    19   19   20 1   
    20   19   28 1   
    21   20   21 1   
    22   20   23 1   
    23   20   29 1   
    24   21   22 2   
    25   21   41 1   
    26   23   24 1   
    27   23   30 1   
    28   23   31 1   
    29   24   25 1   
    30   24   32 1   
    31   24   33 1   
    32   25   26 1   
    33   25   34 1   
    34   25   35 1   
    35   26   27 1   
    36   26   36 1   
    37   26   37 1   
    38   27   38 1   
    39   27   39 1   
    40   27   40 1   
    41   41   42 1   
    42   41   49 1   
    43   42   43 1   
    44   42   45 1   
    45   42   50 1   
    46   43   44 2   
    47   43   53 1   
    48   45   46 1   
    49   45   51 1   
    50   45   52 1   
    51   46   47 1   
    52   46   48 1   
    53   53   54 1   
    54   53   57 1   
    55   54   55 1   
    56   54   58 1   
    57   54   59 1   
    58   55   56 2   
    59   55   60 1   
    60   60   61 1   
    61   60   68 1   
    62   61   62 1   
    63   61   64 1   
    64   61   69 1   
    65   62   63 2   
    66   62   72 1   
    67   64   65 1   
    68   64   70 1   
    69   64   71 1   
    70   65   66 1   
    71   65   67 1   
    72   72   73 1   
    73   72   76 1   
    74   73   74 1   
    75   73   77 1   
    76   73   78 1   
    77   74   75 2   
    78   74   79 1   
    79   79   80 1   
    80   79   86 1   
    81   80   81 1   
    82   80   83 1   
    83   80   87 1   
    84   81   82 2   
    85   81   93 1   
    86   83   84 1   
    87   83   85 1   
    88   83   88 1   
    89   84   90 1   
    90   84   91 1   
    91   84   92 1   
    92   85   89 1   
    93   93   94 1   
    94   93  101 1   
    95   94   95 1   
    96   94   97 1   
    97   94  102 1   
    98   95   96 2   
    99   95  112 1   
   100   97   98 1   
   101   97   99 1   
   102   97  103 1   
   103   98  100 1   
   104   98  104 1   
   105   98  105 1   
   106   99  106 1   
   107   99  107 1   
   108   99  108 1   
   109  100  109 1   
   110  100  110 1   
   111  100  111 1   
   112  112  113 1   
   113  112  119 1   
   114  113  114 1   
   115  113  116 1   
   116  113  120 1   
   117  114  115 2   
   118  114  126 1   
   119  116  117 1   
   120  116  118 1   
   121  116  121 1   
   122  117  123 1   
   123  117  124 1   
   124  117  125 1   
   125  118  122 1   
   126  126  127 1   
   127  126  133 1   
   128  127  128 1   
   129  127  130 1   
   130  127  134 1   
   131  128  129 2   
   132  128  140 1   
   133  130  131 1   
   134  130  132 1   
   135  130  135 1   
   136  131  137 1   
   137  131  138 1   
   138  131  139 1   
   139  132  136 1   
   140  140  141 1   
   141  140  149 1   
   142  141  142 1   
   143  141  144 1   
   144  141  150 1   
   145  142  143 2   
   146  142  162 1   
   147  144  145 1   
   148  144  151 1   
   149  144  152 1   
   150  145  146 1   
   151  145  153 1   
   152  145  154 1   
   153  146  147 1   
   154  146  155 1   
   155  146  156 1   
   156  147  148 1   
   157  147  157 1   
   158  147  158 1   
   159  148  159 1   
   160  148  160 1   
   161  148  161 1   
   162  162  163 1   
   163  162  171 1   
   164  163  164 1   
   165  163  166 1   
   166  163  172 1   
   167  164  165 2   
   168  164  177 1   
   169  166  167 1   
   170  166  173 1   
   171  166  174 1   
   172  167  168 1   
   173  167  175 1   
   174  167  176 1   
   175  168  169 1   
   176  168  170 1   
   177  177  178 1   
   178  177  182 1   
   179  178  179 1   
   180  178  180 1   
   181  178  181 1   
   182  184  185 1   
   183  184  186 1   
   184  187  188 1   
   185  187  189 1   
@<TRIPOS>SUBSTRUCTURE
     1 MOL         1 TEMP              0 ****  ****    0 ROOT
