@<TRIPOS>MOLECULE
MOL
  178   175     1     0     0
SMALL
resp


@<TRIPOS>ATOM
      1 C1          0.1750    1.7170    6.3350 c3        1 MOL     -0.322964
      2 C2         -0.2330    1.9650    4.8460 c         1 MOL      0.704172
      3 O1          0.5120    2.4930    4.0260 o         1 MOL     -0.552320
      4 H1          1.2530    1.8350    6.4400 hc        1 MOL      0.079805
      5 H2         -0.3340    2.4370    6.9760 hc        1 MOL      0.079805
      6 H3         -0.1100    0.7060    6.6260 hc        1 MOL      0.079805
      7 N1         -1.4270    1.5390    4.3820 n         1 MOL     -0.545557
      8 C3         -1.8980    1.6530    3.0080 c3        1 MOL      0.049749
      9 C4         -2.3300    3.0830    2.6890 c         1 MOL      0.595490
     10 O2         -2.7910    3.6990    3.6220 o         1 MOL     -0.590847
     11 C5         -3.0400    0.6920    2.7390 c3        1 MOL     -0.172535
     12 C6         -3.5110    0.7190    1.2900 c         1 MOL      0.846734
     13 O3         -4.5800    0.1560    1.0120 o         1 MOL     -0.788753
     14 O4         -2.7650    1.0570    0.3580 o         1 MOL     -0.788753
     15 H4         -2.1200    1.1540    5.0040 hn        1 MOL      0.270041
     16 H5         -1.0630    1.3610    2.3790 h1        1 MOL      0.109680
     17 H6         -3.9080    1.0360    3.3080 hc        1 MOL      0.039827
     18 H7         -2.7440   -0.3330    2.9460 hc        1 MOL      0.039827
     19 N2         -2.1600    3.5820    1.4920 n         1 MOL     -0.676292
     20 C7         -2.7420    4.8820    1.1760 c3        1 MOL      0.620861
     21 C8         -3.5860    4.9340   -0.1220 c         1 MOL      0.154684
     22 O5         -3.8880    6.0620   -0.6160 o         1 MOL     -0.525914
     23 C9         -1.5780    5.9450    1.2470 c3        1 MOL     -0.166373
     24 H8         -1.5020    3.1210    0.8890 hn        1 MOL      0.389322
     25 H9         -3.5140    5.1550    1.9010 h1        1 MOL     -0.084960
     26 H10        -1.8950    6.9510    0.9940 hc        1 MOL      0.029531
     27 H11        -1.2320    6.1270    2.2570 hc        1 MOL      0.029531
     28 H12        -0.7600    5.5620    0.6260 hc        1 MOL      0.029531
     29 N3         -3.8310    3.7450   -0.6840 n         1 MOL     -0.070403
     30 C10        -4.7820    3.5710   -1.8590 c3        1 MOL      0.061885
     31 C11        -6.0770    2.7480   -1.5160 c         1 MOL      0.294169
     32 O6         -6.8590    2.5040   -2.4190 o         1 MOL     -0.454891
     33 C12        -4.0790    3.1320   -3.1820 c3        1 MOL      0.061163
     34 C13        -2.5550    3.4240   -3.2520 c         1 MOL      0.539481
     35 O7         -2.2110    4.5820   -3.4640 o         1 MOL     -0.647446
     36 O8         -1.8210    2.4990   -2.9080 o         1 MOL     -0.647446
     37 H13        -3.4610    2.8950   -0.2890 hn        1 MOL      0.163123
     38 H14        -5.2130    4.5280   -2.1410 h1        1 MOL      0.086045
     39 H15        -4.6740    3.6950   -3.9120 hc        1 MOL     -0.060037
     40 H16        -4.1730    2.0500   -3.2400 hc        1 MOL     -0.060037
     41 N4         -6.3900    2.4880   -0.2650 n         1 MOL     -0.094608
     42 C14        -7.7400    2.1520    0.1380 c3        1 MOL     -0.310351
     43 C15        -8.1880    0.6860   -0.0770 c         1 MOL      0.636876
     44 O9         -9.3550    0.4040   -0.4290 o         1 MOL     -0.577591
     45 H17        -5.6490    2.7020    0.3860 hn        1 MOL      0.127492
     46 H18        -8.4150    2.7670   -0.4610 h1        1 MOL      0.128910
     47 H19        -7.9350    2.2930    1.1970 h1        1 MOL      0.128910
     48 N5         -7.3260   -0.3370    0.0230 n         1 MOL     -0.605912
     49 C16        -7.7110   -1.7540   -0.1830 c3        1 MOL     -0.010176
     50 C17        -7.1230   -2.7340    0.8630 c         1 MOL      0.464207
     51 O10        -7.3680   -3.9200    0.7340 o         1 MOL     -0.514380
     52 C18        -7.4640   -2.2620   -1.6490 c3        1 MOL     -0.118691
     53 C19        -8.2910   -1.5490   -2.6990 c         1 MOL      0.728384
     54 N6         -9.4900   -2.0090   -2.9890 n         1 MOL     -0.866504
     55 O11        -7.7930   -0.7360   -3.4840 o         1 MOL     -0.552478
     56 H20        -6.3440   -0.2080    0.2140 hn        1 MOL      0.481639
     57 H21        -8.7990   -1.8640   -0.1440 h1        1 MOL      0.091853
     58 H22        -7.6860   -3.3230   -1.6510 hc        1 MOL      0.016337
     59 H23        -6.4320   -2.1960   -2.0180 hc        1 MOL      0.016337
     60 H24        -9.9070   -2.5900   -2.2730 hn        1 MOL      0.380547
     61 H25        -9.9110   -1.3630   -3.6440 hn        1 MOL      0.380547
     62 N7         -6.3770   -2.2810    1.8920 n         1 MOL     -0.229582
     63 C20        -5.7510   -3.1000    2.8510 c3        1 MOL     -0.086287
     64 C21        -4.5290   -3.8130    2.2460 c         1 MOL      0.506243
     65 O12        -4.2650   -4.9530    2.4730 o         1 MOL     -0.536270
     66 H26        -6.1100   -1.3050    1.9240 hn        1 MOL      0.157058
     67 H27        -6.4100   -3.9250    3.1360 h1        1 MOL      0.074832
     68 H28        -5.4680   -2.5060    3.7070 h1        1 MOL      0.074832
     69 N8         -3.8260   -3.0840    1.3630 n         1 MOL     -0.323569
     70 C22        -2.7270   -3.7460    0.4970 c3        1 MOL      0.096489
     71 C23        -1.4260   -2.8930    0.3580 c         1 MOL      0.176466
     72 O13        -1.4680   -1.6670    0.2350 o         1 MOL     -0.387644
     73 C24        -3.2390   -4.1650   -0.9510 c3        1 MOL      0.201275
     74 C25        -4.3240   -5.3350   -0.8610 c3        1 MOL     -0.424907
     75 O14        -4.0440   -3.1100   -1.4260 oh        1 MOL     -0.632175
     76 H29        -4.2550   -2.2470    1.0040 hn        1 MOL      0.277283
     77 H30        -2.5530   -4.7050    0.9810 h1        1 MOL      0.094172
     78 H31        -2.5040   -4.5190   -1.6670 h1        1 MOL      0.058374
     79 H32        -4.5990   -3.3870   -2.1660 ho        1 MOL      0.444403
     80 H33        -3.8920   -6.2900   -0.5570 hc        1 MOL      0.116489
     81 H34        -5.0960   -5.1380   -0.1260 hc        1 MOL      0.116489
     82 H35        -4.8000   -5.3860   -1.8360 hc        1 MOL      0.116489
     83 N9         -0.2870   -3.6270    0.5250 n         1 MOL     -0.364973
     84 C26         0.9470   -2.9010    0.9630 c3        1 MOL      0.108220
     85 C27         2.0210   -3.0640   -0.1110 c         1 MOL      0.382768
     86 O15         2.3180   -4.1450   -0.6190 o         1 MOL     -0.573538
     87 C28         1.5570   -3.3600    2.3010 c3        1 MOL      0.067959
     88 C29         0.5820   -3.2500    3.5150 c3        1 MOL      0.335524
     89 C30         2.8550   -2.6050    2.5660 c3        1 MOL     -0.240233
     90 C31         1.0350   -4.2090    4.6820 c3        1 MOL     -0.435408
     91 H36        -0.3400   -4.6080    0.7530 hn        1 MOL      0.264746
     92 H37         0.7230   -1.8360    1.0270 h1        1 MOL      0.076906
     93 H38         1.7520   -4.4200    2.1570 hc        1 MOL     -0.008991
     94 H39        -0.4220   -3.6250    3.3080 hc        1 MOL     -0.060441
     95 H40         0.3830   -2.2340    3.8460 hc        1 MOL     -0.060441
     96 H41         3.1510   -2.6390    3.6180 hc        1 MOL      0.033847
     97 H42         3.7210   -2.7030    1.9150 hc        1 MOL      0.033847
     98 H43         2.6400   -1.5460    2.4140 hc        1 MOL      0.033847
     99 H44         1.1210   -5.1690    4.1700 hc        1 MOL      0.093314
    100 H45         1.9510   -3.7020    5.0060 hc        1 MOL      0.093314
    101 H46         0.2860   -4.2390    5.4690 hc        1 MOL      0.093314
    102 N10         2.4130   -1.9190   -0.6440 n         1 MOL     -0.179925
    103 C32         3.5430   -1.7780   -1.6280 c3        1 MOL      0.204488
    104 C33         4.8810   -1.5200   -0.8730 c         1 MOL      0.230617
    105 O16         4.9050   -1.0530    0.2530 o         1 MOL     -0.127155
    106 C34         3.1930   -0.8250   -2.7210 c3        1 MOL     -0.473506
    107 C35         1.7870   -0.8690   -3.2310 c         1 MOL      0.935830
    108 O17         1.1080    0.1560   -3.0290 o         1 MOL     -0.742188
    109 O18         1.3940   -1.8730   -3.8460 o         1 MOL     -0.742188
    110 H47         2.0380   -1.0970   -0.1920 hn        1 MOL      0.216828
    111 H48         3.5760   -2.7470   -2.1360 h1        1 MOL      0.041545
    112 H49         3.9480   -0.9190   -3.5030 hc        1 MOL      0.092689
    113 H50         3.3640    0.1620   -2.2960 hc        1 MOL      0.092689
    114 N11         5.9500   -1.5490   -1.7550 n         1 MOL     -0.600150
    115 C36         7.3010   -1.3490   -1.2660 c3        1 MOL      0.477640
    116 C37         7.4870    0.0660   -0.6150 c         1 MOL      0.271393
    117 O19         8.0630    0.1400    0.4900 o         1 MOL     -0.461419
    118 C38         8.2920   -1.7510   -2.3470 c3        1 MOL     -0.370847
    119 C39         9.7980   -1.6770   -1.9400 ca        1 MOL      0.262836
    120 C40        10.2870   -2.3080   -0.7660 ca        1 MOL     -0.269805
    121 C41        10.7130   -0.9980   -2.8840 ca        1 MOL     -0.269805
    122 C42        11.6770   -2.1700   -0.4770 ca        1 MOL     -0.015454
    123 C43        12.0700   -0.8320   -2.4830 ca        1 MOL     -0.015454
    124 C44        12.5480   -1.4520   -1.3480 ca        1 MOL     -0.246075
    125 H51         5.8590   -1.9410   -2.6850 hn        1 MOL      0.340232
    126 H52         7.4670   -1.9620   -0.3850 h1        1 MOL      0.013468
    127 H53         8.1060   -1.1880   -3.2540 hc        1 MOL      0.092533
    128 H54         8.1410   -2.8040   -2.5790 hc        1 MOL      0.092533
    129 H55         9.6090   -3.0170   -0.3000 ha        1 MOL      0.136745
    130 H56        10.3000   -0.5010   -3.7470 ha        1 MOL      0.136745
    131 H57        11.9930   -2.4300    0.5150 ha        1 MOL      0.098423
    132 H58        12.7820   -0.2140   -3.0200 ha        1 MOL      0.098423
    133 H59        13.5280   -1.1910   -0.9730 ha        1 MOL      0.133443
    134 N12         7.0950    1.2650   -1.2510 n         1 MOL     -0.167719
    135 C45         7.2260    2.5690   -0.5340 c3        1 MOL     -0.078293
    136 C46         6.3380    2.7440    0.7290 c         1 MOL      0.475241
    137 O20         6.8260    3.4150    1.6410 o         1 MOL     -0.518350
    138 C47         6.9480    3.6490   -1.5690 c3        1 MOL     -0.146157
    139 C48         5.8370    2.9280   -2.3490 c3        1 MOL     -0.013196
    140 C49         6.4030    1.5140   -2.5260 c3        1 MOL      0.036849
    141 H60         8.2470    2.6540   -0.1700 h1        1 MOL      0.098549
    142 H61         6.6020    4.5630   -1.0760 hc        1 MOL      0.074177
    143 H62         7.7870    3.9430   -2.1980 hc        1 MOL      0.074177
    144 H63         4.9320    2.7590   -1.7690 hc        1 MOL      0.029281
    145 H64         5.6430    3.4130   -3.3030 hc        1 MOL      0.029281
    146 H65         5.6040    0.7880   -2.6440 h1        1 MOL      0.024017
    147 H66         7.0330    1.4020   -3.4070 h1        1 MOL      0.024017
    148 N13         5.1890    2.1020    0.8080 n         1 MOL     -0.239017
    149 C50         4.3100    2.0090    1.9960 c3        1 MOL     -0.164882
    150 C51         4.9610    1.1490    3.0870 c         1 MOL      0.397174
    151 O21         5.0910    1.6110    4.2120 o         1 MOL     -0.554598
    152 C52         3.0180    1.3270    1.6130 c3        1 MOL      0.036657
    153 C53         2.2400    2.1320    0.5880 c3        1 MOL     -0.010106
    154 C54         0.9300    1.5800    0.2050 c         1 MOL      0.734608
    155 O22         0.8030    0.3930    0.0540 o         1 MOL     -0.802919
    156 O23         0.0170    2.3550   -0.1420 o         1 MOL     -0.802919
    157 H67         4.9810    1.4830    0.0430 hn        1 MOL      0.209595
    158 H68         4.0260    2.9640    2.4230 h1        1 MOL      0.139363
    159 H69         2.3890    1.2400    2.4950 hc        1 MOL      0.015036
    160 H70         3.2630    0.3650    1.1620 hc        1 MOL      0.015036
    161 H71         2.8080    2.3330   -0.3160 hc        1 MOL      0.018894
    162 H72         2.0590    3.0800    1.0900 hc        1 MOL      0.018894
    163 N14         5.5570    0.0410    2.7900 n         1 MOL      0.127611
    164 C55         6.3820   -0.7410    3.7150 c3        1 MOL     -0.231906
    165 H73         7.3560   -0.2640    3.8240 h1        1 MOL      0.079904
    166 H74         5.8920   -0.7910    4.6860 h1        1 MOL      0.079904
    167 H75         6.5140   -1.7490    3.3210 h1        1 MOL      0.079904
    168 H76         5.4210   -0.3840    1.8740 hn        1 MOL     -0.083077
    169 Ca1        -1.2440    0.3700   -1.5700 Ca        1 MOL      1.738819
    170 O24        -1.9880    0.0010   -4.2600 oh        1 MOL     -0.832538
    171 H77        -2.9040   -0.2850   -4.2820 ho        1 MOL      0.400752
    172 H78        -1.8770    0.5150   -5.0630 ho        1 MOL      0.400752
    173 O25        -4.3970   -0.4680   -1.5740 oh        1 MOL     -0.832538
    174 H79        -4.3310   -1.4140   -1.5330 ho        1 MOL      0.400752
    175 H80        -4.5100   -0.1940   -0.6660 ho        1 MOL      0.400752
    176 O26        -0.9660   -2.1940   -2.6450 oh        1 MOL     -0.832538
    177 H81        -1.4150   -2.8030   -3.2280 ho        1 MOL      0.400752
    178 H82        -0.0480   -2.2310   -2.9180 ho        1 MOL      0.400752
@<TRIPOS>BOND
     1    1    2 1   
     2    1    4 1   
     3    1    5 1   
     4    1    6 1   
     5    2    3 2   
     6    2    7 1   
     7    7    8 1   
     8    7   15 1   
     9    8    9 1   
    10    8   11 1   
    11    8   16 1   
    12    9   10 2   
    13    9   19 1   
    14   11   12 1   
    15   11   17 1   
    16   11   18 1   
    17   12   13 1   
    18   12   14 1   
    19   19   20 1   
    20   19   24 1   
    21   20   21 1   
    22   20   23 1   
    23   20   25 1   
    24   21   22 2   
    25   21   29 1   
    26   23   26 1   
    27   23   27 1   
    28   23   28 1   
    29   29   30 1   
    30   29   37 1   
    31   30   31 1   
    32   30   33 1   
    33   30   38 1   
    34   31   32 2   
    35   31   41 1   
    36   33   34 1   
    37   33   39 1   
    38   33   40 1   
    39   34   35 1   
    40   34   36 1   
    41   41   42 1   
    42   41   45 1   
    43   42   43 1   
    44   42   46 1   
    45   42   47 1   
    46   43   44 2   
    47   43   48 1   
    48   48   49 1   
    49   48   56 1   
    50   49   50 1   
    51   49   52 1   
    52   49   57 1   
    53   50   51 2   
    54   50   62 1   
    55   52   53 1   
    56   52   58 1   
    57   52   59 1   
    58   53   54 1   
    59   53   55 2   
    60   54   60 1   
    61   54   61 1   
    62   62   63 1   
    63   62   66 1   
    64   63   64 1   
    65   63   67 1   
    66   63   68 1   
    67   64   65 2   
    68   64   69 1   
    69   69   70 1   
    70   69   76 1   
    71   70   71 1   
    72   70   73 1   
    73   70   77 1   
    74   71   72 2   
    75   71   83 1   
    76   73   74 1   
    77   73   75 1   
    78   73   78 1   
    79   74   80 1   
    80   74   81 1   
    81   74   82 1   
    82   75   79 1   
    83   83   84 1   
    84   83   91 1   
    85   84   85 1   
    86   84   87 1   
    87   84   92 1   
    88   85   86 2   
    89   85  102 1   
    90   87   88 1   
    91   87   89 1   
    92   87   93 1   
    93   88   90 1   
    94   88   94 1   
    95   88   95 1   
    96   89   96 1   
    97   89   97 1   
    98   89   98 1   
    99   90   99 1   
   100   90  100 1   
   101   90  101 1   
   102  102  103 1   
   103  102  110 1   
   104  103  104 1   
   105  103  106 1   
   106  103  111 1   
   107  104  105 2   
   108  104  114 1   
   109  106  107 1   
   110  106  112 1   
   111  106  113 1   
   112  107  108 1   
   113  107  109 1   
   114  114  115 1   
   115  114  125 1   
   116  115  116 1   
   117  115  118 1   
   118  115  126 1   
   119  116  117 2   
   120  116  134 1   
   121  118  119 1   
   122  118  127 1   
   123  118  128 1   
   124  119  120 ar  
   125  119  121 ar  
   126  120  122 ar  
   127  120  129 1   
   128  121  123 ar  
   129  121  130 1   
   130  122  124 ar  
   131  122  131 1   
   132  123  124 ar  
   133  123  132 1   
   134  124  133 1   
   135  134  135 1   
   136  134  140 1   
   137  135  136 1   
   138  135  138 1   
   139  135  141 1   
   140  136  137 2   
   141  136  148 1   
   142  138  139 1   
   143  138  142 1   
   144  138  143 1   
   145  139  140 1   
   146  139  144 1   
   147  139  145 1   
   148  140  146 1   
   149  140  147 1   
   150  148  149 1   
   151  148  157 1   
   152  149  150 1   
   153  149  152 1   
   154  149  158 1   
   155  150  151 2   
   156  150  163 1   
   157  152  153 1   
   158  152  159 1   
   159  152  160 1   
   160  153  154 1   
   161  153  161 1   
   162  153  162 1   
   163  154  155 1   
   164  154  156 1   
   165  163  164 1   
   166  163  168 1   
   167  164  165 1   
   168  164  166 1   
   169  164  167 1   
   170  170  171 1   
   171  170  172 1   
   172  173  174 1   
   173  173  175 1   
   174  176  177 1   
   175  176  178 1   
@<TRIPOS>SUBSTRUCTURE
     1 MOL         1 TEMP              0 ****  ****    0 ROOT
