@<TRIPOS>MOLECULE
MOL
  175   173     1     0     0
SMALL
resp


@<TRIPOS>ATOM
      1 C1          0.6230    4.6080    5.0370 c3        1 MOL     -0.348127
      2 C2         -0.1710    4.5190    3.6910 c         1 MOL      0.734064
      3 O1          0.4450    4.6940    2.6300 o         1 MOL     -0.545923
      4 H1          0.2030    5.4030    5.6540 hc        1 MOL      0.082231
      5 H2          0.5480    3.6590    5.5670 hc        1 MOL      0.082231
      6 H3          1.6700    4.8270    4.8280 hc        1 MOL      0.082231
      7 N1         -1.4830    4.2560    3.6580 n         1 MOL     -0.680590
      8 C3         -2.2280    3.8330    2.4310 c3        1 MOL      0.247583
      9 C4         -2.7340    5.0130    1.5370 c         1 MOL      0.610428
     10 O2         -2.7880    6.1610    1.9780 o         1 MOL     -0.562012
     11 C5         -3.3910    2.9840    2.8560 c3        1 MOL     -0.190373
     12 C6         -4.0380    2.2520    1.7180 c         1 MOL      0.634486
     13 O3         -3.3770    1.8270    0.7080 o         1 MOL     -0.639249
     14 O4         -5.2640    2.2080    1.7580 o         1 MOL     -0.639249
     15 H4         -1.9430    3.9330    4.4990 hn        1 MOL      0.305014
     16 H5         -1.5890    3.1640    1.8700 h1        1 MOL      0.013857
     17 H6         -4.0790    3.5870    3.4440 hc        1 MOL      0.033917
     18 H7         -3.1130    2.2000    3.5650 hc        1 MOL      0.033917
     19 N2         -3.0320    4.6810    0.2580 n         1 MOL     -0.670808
     20 C7         -3.5860    5.7070   -0.6860 c3        1 MOL      0.270776
     21 C8         -4.6080    4.9740   -1.6300 c         1 MOL      0.416368
     22 O5         -5.3370    5.6830   -2.3160 o         1 MOL     -0.585791
     23 C9         -2.3640    6.2280   -1.4590 c3        1 MOL     -0.213014
     24 H8         -2.8780    3.7400   -0.0870 hn        1 MOL      0.408300
     25 H9         -4.0710    6.5350   -0.1680 h1        1 MOL      0.046181
     26 H10        -1.7790    6.9410   -0.8920 hc        1 MOL      0.060063
     27 H11        -1.7820    5.4280   -1.9200 hc        1 MOL      0.060063
     28 H12        -2.7120    6.9330   -2.1990 hc        1 MOL      0.060063
     29 N3         -4.8120    3.6700   -1.6480 n         1 MOL     -0.208417
     30 C10        -5.4200    2.8730   -2.7330 c3        1 MOL      0.054898
     31 C11        -6.5510    1.9110   -2.2800 c         1 MOL      0.348777
     32 O6         -7.2860    1.3290   -3.1400 o         1 MOL     -0.541726
     33 C12        -4.2870    2.1520   -3.5830 c3        1 MOL     -0.160689
     34 C13        -3.4280    1.1590   -2.7420 c         1 MOL      0.648685
     35 O7         -2.2140    1.4580   -2.6060 o         1 MOL     -0.669277
     36 O8         -3.9210    0.2070   -2.0500 o         1 MOL     -0.669277
     37 H13        -4.3070    3.1270   -0.9640 hn        1 MOL      0.133807
     38 H14        -5.8920    3.5500   -3.4410 h1        1 MOL      0.094628
     39 H15        -3.6550    2.8690   -4.0970 hc        1 MOL      0.045491
     40 H16        -4.7960    1.5380   -4.3290 hc        1 MOL      0.045491
     41 N4         -6.6650    1.6370   -0.9730 n         1 MOL     -0.227893
     42 C14        -7.6260    0.7080   -0.3630 c3        1 MOL     -0.037827
     43 C15        -7.5330   -0.7690   -0.8890 c         1 MOL      0.439993
     44 O9         -8.5780   -1.4420   -0.7330 o         1 MOL     -0.598522
     45 H17        -6.0120    2.0250   -0.3160 hn        1 MOL      0.139862
     46 H18        -8.6490    1.0530   -0.4980 h1        1 MOL      0.072113
     47 H19        -7.5070    0.6400    0.7260 h1        1 MOL      0.072113
     48 N5         -6.3920   -1.1610   -1.4420 n         1 MOL     -0.245511
     49 C16        -6.0710   -2.4520   -2.0770 c3        1 MOL      0.021303
     50 C17        -5.9000   -3.6210   -1.0710 c         1 MOL      0.366238
     51 O10        -5.7690   -4.7830   -1.4720 o         1 MOL     -0.507805
     52 C18        -4.8030   -2.4090   -3.0090 c3        1 MOL     -0.232660
     53 C19        -3.3580   -2.5040   -2.3670 c         1 MOL      0.730030
     54 N6         -2.3280   -2.8890   -3.0680 n         1 MOL     -0.651130
     55 O11        -3.0930   -2.2110   -1.1870 o         1 MOL     -0.665013
     56 H20        -5.7520   -0.3910   -1.5690 hn        1 MOL      0.345774
     57 H21        -6.8880   -2.6700   -2.7520 h1        1 MOL      0.107933
     58 H22        -4.9280   -1.4810   -3.5630 hc        1 MOL      0.053992
     59 H23        -4.9210   -3.3410   -3.5590 hc        1 MOL      0.053992
     60 H24        -2.3890   -3.0560   -4.0630 hn        1 MOL      0.332504
     61 H25        -1.4400   -2.9300   -2.5960 hn        1 MOL      0.332504
     62 N7         -6.0010   -3.2170    0.2110 n         1 MOL     -0.166341
     63 C20        -6.0930   -4.1310    1.3630 c3        1 MOL     -0.245601
     64 C21        -4.6850   -4.4200    1.9030 c         1 MOL      0.529397
     65 O12        -4.6610   -5.1110    2.9140 o         1 MOL     -0.589469
     66 H26        -6.1170   -2.2270    0.3880 hn        1 MOL      0.208153
     67 H27        -6.5480   -5.0930    1.1520 h1        1 MOL      0.131089
     68 H28        -6.6920   -3.6950    2.1590 h1        1 MOL      0.131089
     69 N8         -3.5750   -4.0680    1.2630 n         1 MOL     -0.290792
     70 C22        -2.1940   -4.4880    1.4810 c3        1 MOL     -0.023621
     71 C23        -1.2280   -3.2900    1.5910 c         1 MOL      0.439163
     72 O13        -1.4820   -2.2800    0.9170 o         1 MOL     -0.491324
     73 C24        -1.7280   -5.4880    0.4230 c3        1 MOL      0.608717
     74 C25        -2.2800   -6.8900    0.4210 c3        1 MOL     -0.442192
     75 O14        -2.1280   -4.8960   -0.8690 oh        1 MOL     -0.654104
     76 H29        -3.7030   -3.5670    0.3900 hn        1 MOL      0.230862
     77 H30        -2.0500   -5.0950    2.3800 h1        1 MOL      0.017086
     78 H31        -0.6470   -5.6090    0.4660 h1        1 MOL     -0.068521
     79 H32        -1.9160   -3.9660   -0.8260 ho        1 MOL      0.349243
     80 H33        -2.8400   -6.8960    1.3520 hc        1 MOL      0.105421
     81 H34        -2.9710   -7.1320   -0.3910 hc        1 MOL      0.105421
     82 H35        -1.5200   -7.6740    0.4340 hc        1 MOL      0.105421
     83 N9         -0.1510   -3.5040    2.3460 n         1 MOL     -0.469375
     84 C26         1.1150   -2.5940    2.3000 c3        1 MOL     -0.081675
     85 C27         1.7600   -2.8390    0.9730 c         1 MOL      0.449224
     86 O15         2.1370   -3.9240    0.5660 o         1 MOL     -0.571825
     87 C28         2.0970   -2.8630    3.4240 c3        1 MOL      0.266350
     88 C29         1.6400   -2.9760    4.9150 c3        1 MOL     -0.151867
     89 C30         3.1600   -1.8190    3.3520 c3        1 MOL     -0.215968
     90 C31         2.4610   -3.7090    5.8770 c3        1 MOL      0.088244
     91 H36        -0.0230   -4.4630    2.6300 hn        1 MOL      0.302466
     92 H37         0.7880   -1.5540    2.2260 h1        1 MOL      0.102574
     93 H38         2.5630   -3.8250    3.1660 hc        1 MOL     -0.030611
     94 H39         0.6500   -3.4340    4.9140 hc        1 MOL      0.022816
     95 H40         1.5370   -1.9910    5.3520 hc        1 MOL      0.022816
     96 H41         3.8940   -2.0580    4.1290 hc        1 MOL      0.044230
     97 H42         3.7070   -1.7640    2.4220 hc        1 MOL      0.044230
     98 H43         2.6880   -0.8600    3.5690 hc        1 MOL      0.044230
     99 H44         3.5370   -3.5260    5.8330 hc        1 MOL     -0.020225
    100 H45         2.2730   -3.6220    6.9450 hc        1 MOL     -0.020225
    101 H46         2.3270   -4.7660    5.6530 hc        1 MOL     -0.020225
    102 N10         1.8770   -1.7520    0.2460 n         1 MOL      0.016977
    103 C32         2.6570   -1.7670   -0.9650 c3        1 MOL      0.102334
    104 C33         4.1110   -1.3750   -0.7080 c         1 MOL      0.253014
    105 O16         4.5390   -0.8570    0.3090 o         1 MOL     -0.243730
    106 C34         2.0530   -0.8960   -2.0680 c3        1 MOL     -0.324327
    107 C35         0.6550   -1.2670   -2.5470 c         1 MOL      0.723849
    108 O17        -0.3230   -1.0830   -1.7690 o         1 MOL     -0.676281
    109 O18         0.4260   -1.6700   -3.7100 o         1 MOL     -0.676281
    110 H47         1.4270   -0.8800    0.5100 hn        1 MOL     -0.076540
    111 H48         2.6670   -2.7780   -1.3500 h1        1 MOL      0.057925
    112 H49         2.6870   -0.9670   -2.9520 hc        1 MOL      0.087978
    113 H50         1.9760    0.0880   -1.5990 hc        1 MOL      0.087978
    114 N11         4.9690   -1.4670   -1.7090 n         1 MOL     -0.441373
    115 C36         6.4210   -1.2460   -1.5350 c3        1 MOL      0.226463
    116 C37         6.9010    0.2690   -1.2680 c         1 MOL      0.326658
    117 O19         7.7970    0.5030   -0.4290 o         1 MOL     -0.486344
    118 C38         7.2630   -1.7000   -2.7650 c3        1 MOL     -0.171478
    119 C39         8.7740   -1.6510   -2.5580 ca        1 MOL      0.245905
    120 C40         9.2960   -2.3260   -1.4750 ca        1 MOL     -0.309366
    121 C41         9.5440   -0.9080   -3.4100 ca        1 MOL     -0.309366
    122 C42        10.6640   -2.3240   -1.2640 ca        1 MOL      0.047212
    123 C43        10.8690   -0.8290   -3.1490 ca        1 MOL      0.047212
    124 C44        11.4710   -1.6180   -2.1580 ca        1 MOL     -0.264840
    125 H51         4.6290   -1.8300   -2.5850 hn        1 MOL      0.300288
    126 H52         6.7240   -1.8370   -0.6740 h1        1 MOL      0.068649
    127 H53         6.9680   -1.1440   -3.6550 hc        1 MOL      0.038108
    128 H54         7.0560   -2.7560   -2.9000 hc        1 MOL      0.038108
    129 H55         8.7500   -2.9190   -0.7660 ha        1 MOL      0.148347
    130 H56         9.1290   -0.4080   -4.2740 ha        1 MOL      0.148347
    131 H57        11.1720   -2.8650   -0.4700 ha        1 MOL      0.074545
    132 H58        11.4380   -0.2000   -3.8100 ha        1 MOL      0.074545
    133 H59        12.5470   -1.6460   -2.0700 ha        1 MOL      0.120977
    134 N12         6.2660    1.3430   -1.8270 n         1 MOL      0.004389
    135 C45         6.5800    2.7030   -1.3890 c3        1 MOL     -0.121149
    136 C46         6.0050    3.0290    0.0690 c         1 MOL      0.448494
    137 O20         6.3800    3.8620    0.8450 o         1 MOL     -0.485288
    138 C47         6.0410    3.5340   -2.5480 c3        1 MOL     -0.109647
    139 C48         4.8430    2.7900   -3.0470 c3        1 MOL      0.007953
    140 C49         5.3690    1.3140   -2.9320 c3        1 MOL      0.018388
    141 H60         7.6570    2.9010   -1.3440 h1        1 MOL      0.084049
    142 H61         5.8140    4.5660   -2.3150 hc        1 MOL      0.054863
    143 H62         6.7050    3.5160   -3.4070 hc        1 MOL      0.054863
    144 H63         3.9680    2.8730   -2.4040 hc        1 MOL      0.024629
    145 H64         4.6150    3.0560   -4.0860 hc        1 MOL      0.024629
    146 H65         4.5550    0.5820   -2.9540 h1        1 MOL     -0.000255
    147 H66         5.9540    1.0800   -3.8220 h1        1 MOL     -0.000255
    148 N13         4.9260    2.2240    0.4040 n         1 MOL     -0.209310
    149 C50         4.1860    2.2890    1.7130 c3        1 MOL     -0.130933
    150 C51         5.0940    1.5950    2.7170 c         1 MOL      0.492547
    151 O21         5.3800    2.1900    3.7400 o         1 MOL     -0.559070
    152 C52         2.8110    1.6770    1.6070 c3        1 MOL     -0.022898
    153 C53         1.8290    2.3760    0.6160 c3        1 MOL     -0.020673
    154 C54         0.4610    1.7430    0.5160 c         1 MOL      0.692221
    155 O22        -0.3810    2.4200   -0.1660 o         1 MOL     -0.673468
    156 O23         0.2020    0.5870    0.9250 o         1 MOL     -0.673468
    157 H67         4.7280    1.4410   -0.1930 hn        1 MOL      0.193622
    158 H68         4.0510    3.3490    1.9390 h1        1 MOL      0.124933
    159 H69         2.3340    1.6460    2.5860 hc        1 MOL      0.026649
    160 H70         2.9430    0.6490    1.2640 hc        1 MOL      0.026649
    161 H71         2.2810    2.3760   -0.3870 hc        1 MOL      0.013600
    162 H72         1.6100    3.3710    0.9970 hc        1 MOL      0.013600
    163 N14         5.6710    0.4100    2.3740 n         1 MOL     -0.094516
    164 C55         6.7010   -0.2980    3.1870 c3        1 MOL     -0.155536
    165 H73         7.1770   -1.0660    2.5780 h1        1 MOL      0.069214
    166 H74         7.4530    0.4150    3.5240 h1        1 MOL      0.069214
    167 H75         6.2260   -0.7630    4.0510 h1        1 MOL      0.069214
    168 H76         5.1760   -0.0100    1.5960 hn        1 MOL     -0.017634
    169 Ca1        -2.0250   -0.0370   -0.1720 Ca        1 MOL      1.638203
    170 O24        -1.8450    0.1270    2.7800 oh        1 MOL     -0.765947
    171 H77        -2.0090    0.3080    3.7030 ho        1 MOL      0.368320
    172 H78        -0.8900    0.1510    2.6970 ho        1 MOL      0.368320
    173 O25        -4.5970   -0.6540    0.9680 oh        1 MOL     -0.765947
    174 H79        -4.0790   -0.7510    1.7710 ho        1 MOL      0.368320
    175 H80        -5.1060    0.1470    1.1080 ho        1 MOL      0.368320
@<TRIPOS>BOND
     1    1    2 1   
     2    1    4 1   
     3    1    5 1   
     4    1    6 1   
     5    2    3 2   
     6    2    7 1   
     7    7    8 1   
     8    7   15 1   
     9    8    9 1   
    10    8   11 1   
    11    8   16 1   
    12    9   10 2   
    13    9   19 1   
    14   11   12 1   
    15   11   17 1   
    16   11   18 1   
    17   12   13 1   
    18   12   14 1   
    19   19   20 1   
    20   19   24 1   
    21   20   21 1   
    22   20   23 1   
    23   20   25 1   
    24   21   22 2   
    25   21   29 1   
    26   23   26 1   
    27   23   27 1   
    28   23   28 1   
    29   29   30 1   
    30   29   37 1   
    31   30   31 1   
    32   30   33 1   
    33   30   38 1   
    34   31   32 2   
    35   31   41 1   
    36   33   34 1   
    37   33   39 1   
    38   33   40 1   
    39   34   35 1   
    40   34   36 1   
    41   41   42 1   
    42   41   45 1   
    43   42   43 1   
    44   42   46 1   
    45   42   47 1   
    46   43   44 2   
    47   43   48 1   
    48   48   49 1   
    49   48   56 1   
    50   49   50 1   
    51   49   52 1   
    52   49   57 1   
    53   50   51 2   
    54   50   62 1   
    55   52   53 1   
    56   52   58 1   
    57   52   59 1   
    58   53   54 1   
    59   53   55 2   
    60   54   60 1   
    61   54   61 1   
    62   62   63 1   
    63   62   66 1   
    64   63   64 1   
    65   63   67 1   
    66   63   68 1   
    67   64   65 2   
    68   64   69 1   
    69   69   70 1   
    70   69   76 1   
    71   70   71 1   
    72   70   73 1   
    73   70   77 1   
    74   71   72 2   
    75   71   83 1   
    76   73   74 1   
    77   73   75 1   
    78   73   78 1   
    79   74   80 1   
    80   74   81 1   
    81   74   82 1   
    82   75   79 1   
    83   83   84 1   
    84   83   91 1   
    85   84   85 1   
    86   84   87 1   
    87   84   92 1   
    88   85   86 2   
    89   85  102 1   
    90   87   88 1   
    91   87   89 1   
    92   87   93 1   
    93   88   90 1   
    94   88   94 1   
    95   88   95 1   
    96   89   96 1   
    97   89   97 1   
    98   89   98 1   
    99   90   99 1   
   100   90  100 1   
   101   90  101 1   
   102  102  103 1   
   103  102  110 1   
   104  103  104 1   
   105  103  106 1   
   106  103  111 1   
   107  104  105 2   
   108  104  114 1   
   109  106  107 1   
   110  106  112 1   
   111  106  113 1   
   112  107  108 1   
   113  107  109 1   
   114  114  115 1   
   115  114  125 1   
   116  115  116 1   
   117  115  118 1   
   118  115  126 1   
   119  116  117 2   
   120  116  134 1   
   121  118  119 1   
   122  118  127 1   
   123  118  128 1   
   124  119  120 ar  
   125  119  121 ar  
   126  120  122 ar  
   127  120  129 1   
   128  121  123 ar  
   129  121  130 1   
   130  122  124 ar  
   131  122  131 1   
   132  123  124 ar  
   133  123  132 1   
   134  124  133 1   
   135  134  135 1   
   136  134  140 1   
   137  135  136 1   
   138  135  138 1   
   139  135  141 1   
   140  136  137 2   
   141  136  148 1   
   142  138  139 1   
   143  138  142 1   
   144  138  143 1   
   145  139  140 1   
   146  139  144 1   
   147  139  145 1   
   148  140  146 1   
   149  140  147 1   
   150  148  149 1   
   151  148  157 1   
   152  149  150 1   
   153  149  152 1   
   154  149  158 1   
   155  150  151 2   
   156  150  163 1   
   157  152  153 1   
   158  152  159 1   
   159  152  160 1   
   160  153  154 1   
   161  153  161 1   
   162  153  162 1   
   163  154  155 1   
   164  154  156 1   
   165  163  164 1   
   166  163  168 1   
   167  164  165 1   
   168  164  166 1   
   169  164  167 1   
   170  170  171 1   
   171  170  172 1   
   172  173  174 1   
   173  173  175 1   
@<TRIPOS>SUBSTRUCTURE
     1 MOL         1 TEMP              0 ****  ****    0 ROOT
