@<TRIPOS>MOLECULE
MOL
  172   171     1     0     0
SMALL
resp


@<TRIPOS>ATOM
      1 C1          0.4010    4.0690    5.5960 c3        1 MOL     -0.496571
      2 C2         -0.0830    4.1530    4.1730 c         1 MOL      0.727204
      3 O1          0.6610    4.2410    3.1980 o         1 MOL     -0.551468
      4 H1          1.3940    3.6210    5.6160 hc        1 MOL      0.125334
      5 H2          0.4460    5.0700    6.0250 hc        1 MOL      0.125334
      6 H3         -0.2850    3.4540    6.1780 hc        1 MOL      0.125334
      7 N1         -1.4060    4.1300    3.9680 n         1 MOL     -0.584311
      8 C3         -2.0060    3.7610    2.7070 c3        1 MOL      0.023880
      9 C4         -2.2070    4.8850    1.6860 c         1 MOL      0.684631
     10 O2         -2.4470    6.0350    2.0450 o         1 MOL     -0.584451
     11 C5         -3.3440    3.2050    3.0610 c3        1 MOL     -0.454331
     12 C6         -4.1260    2.4390    1.9510 c         1 MOL      0.844784
     13 O3         -5.2520    1.9850    2.1720 o         1 MOL     -0.685640
     14 O4         -3.5000    2.1110    0.8820 o         1 MOL     -0.685640
     15 H4         -2.0780    4.1280    4.7180 hn        1 MOL      0.320485
     16 H5         -1.3870    2.9130    2.3860 h1        1 MOL      0.178250
     17 H6         -3.9590    3.9860    3.4950 hc        1 MOL      0.090724
     18 H7         -3.2770    2.5050    3.8920 hc        1 MOL      0.090724
     19 N2         -1.9870    4.6150    0.3610 n         1 MOL     -0.612913
     20 C7         -2.0460    5.5610   -0.7140 c3        1 MOL      0.235675
     21 C8         -2.9270    5.0890   -1.9090 c         1 MOL      0.399932
     22 O5         -3.0850    5.9120   -2.8790 o         1 MOL     -0.586183
     23 C9         -0.6000    5.6630   -1.1930 c3        1 MOL     -0.315319
     24 H8         -1.6620    3.6850    0.1430 hn        1 MOL      0.464481
     25 H9         -2.3060    6.5880   -0.4560 h1        1 MOL      0.043674
     26 H10        -0.5470    6.1390   -2.1730 hc        1 MOL      0.077603
     27 H11        -0.0260    6.1320   -0.3980 hc        1 MOL      0.077603
     28 H12        -0.2040    4.6680   -1.3760 hc        1 MOL      0.077603
     29 N3         -3.5900    3.9440   -1.8310 n         1 MOL     -0.202646
     30 C10        -4.6170    3.5810   -2.8120 c3        1 MOL      0.101075
     31 C11        -5.9320    2.8730   -2.2860 c         1 MOL      0.350160
     32 O6         -6.9420    2.9160   -2.9700 o         1 MOL     -0.536994
     33 C12        -4.0090    2.5970   -3.8020 c3        1 MOL     -0.265249
     34 C13        -3.2600    1.3910   -3.2050 c         1 MOL      0.845831
     35 O7         -2.5430    0.7620   -3.9630 o         1 MOL     -0.735397
     36 O8         -3.3590    1.1400   -1.9780 o         1 MOL     -0.735397
     37 H13        -3.4860    3.3140   -1.0460 hn        1 MOL      0.105022
     38 H14        -5.1180    4.3920   -3.3440 h1        1 MOL      0.067384
     39 H15        -3.3370    3.2330   -4.3910 hc        1 MOL      0.054757
     40 H16        -4.8610    2.2770   -4.3900 hc        1 MOL      0.054757
     41 N4         -5.9700    2.2660   -1.0680 n         1 MOL      0.015440
     42 C14        -7.1550    1.5930   -0.5130 c3        1 MOL     -0.469424
     43 C15        -7.3500    0.1000   -0.8650 c         1 MOL      0.651000
     44 O9         -8.2680   -0.5340   -0.3510 o         1 MOL     -0.614396
     45 H17        -5.0800    2.2230   -0.5950 hn        1 MOL     -0.050265
     46 H18        -8.0320    2.2130   -0.6920 h1        1 MOL      0.184895
     47 H19        -6.9400    1.5340    0.5510 h1        1 MOL      0.184895
     48 N5         -6.4170   -0.4280   -1.6690 n         1 MOL     -0.422328
     49 C16        -6.4170   -1.8320   -2.3150 c3        1 MOL     -0.058411
     50 C17        -6.4580   -3.0950   -1.4240 c         1 MOL      0.460949
     51 O10        -6.7700   -4.1720   -1.8860 o         1 MOL     -0.537273
     52 C18        -5.1910   -1.9710   -3.2240 c3        1 MOL     -0.086591
     53 C19        -3.8500   -2.1840   -2.4970 c         1 MOL      0.716272
     54 N6         -2.8590   -2.5380   -3.2850 n         1 MOL     -0.672886
     55 O11        -3.6490   -1.9430   -1.2970 o         1 MOL     -0.783615
     56 H20        -5.7170    0.2210   -1.9980 hn        1 MOL      0.319838
     57 H21        -7.3250   -1.7210   -2.9020 h1        1 MOL      0.117345
     58 H22        -5.0800   -1.1060   -3.8770 hc        1 MOL      0.024110
     59 H23        -5.3060   -2.8830   -3.8280 hc        1 MOL      0.024110
     60 H24        -2.9710   -2.4150   -4.2760 hn        1 MOL      0.352835
     61 H25        -1.9790   -2.6020   -2.8030 hn        1 MOL      0.352835
     62 N7         -6.2320   -3.0120   -0.1170 n         1 MOL     -0.106874
     63 C20        -6.4840   -4.1230    0.9020 c3        1 MOL     -0.231812
     64 C21        -5.2780   -4.7010    1.5700 c         1 MOL      0.654159
     65 O12        -5.4080   -5.6230    2.4120 o         1 MOL     -0.604380
     66 H26        -5.8020   -2.1730    0.2400 hn        1 MOL      0.177953
     67 H27        -7.0920   -4.8710    0.3870 h1        1 MOL      0.114015
     68 H28        -7.0920   -3.7670    1.7370 h1        1 MOL      0.114015
     69 N8         -4.0780   -4.1560    1.2780 n         1 MOL     -0.462356
     70 C22        -2.7410   -4.7090    1.4770 c3        1 MOL      0.069479
     71 C23        -1.7310   -3.5750    1.6230 c         1 MOL      0.291871
     72 O13        -1.9410   -2.5330    1.0510 o         1 MOL     -0.490161
     73 C24        -2.1940   -5.5200    0.2530 c3        1 MOL      0.496108
     74 C25        -2.6910   -6.9090    0.2570 c3        1 MOL     -0.264100
     75 O14        -2.6000   -4.8410   -0.9010 oh        1 MOL     -0.599406
     76 H29        -4.0600   -3.3890    0.6190 hn        1 MOL      0.309485
     77 H30        -2.7110   -5.4390    2.2840 h1        1 MOL      0.021118
     78 H31        -1.1200   -5.6210    0.3700 h1        1 MOL     -0.046831
     79 H32        -1.9470   -4.1520   -1.0220 ho        1 MOL      0.348833
     80 H33        -3.7230   -6.8900    0.5860 hc        1 MOL      0.057515
     81 H34        -2.5860   -7.4630   -0.6760 hc        1 MOL      0.057515
     82 H35        -2.0880   -7.5710    0.8730 hc        1 MOL      0.057515
     83 N9         -0.5730   -3.8030    2.2740 n         1 MOL     -0.123614
     84 C26         0.5800   -2.8730    2.2630 c3        1 MOL     -0.032917
     85 C27         1.5590   -3.2360    1.1820 c         1 MOL      0.410364
     86 O15         1.8480   -4.4230    0.9310 o         1 MOL     -0.570468
     87 C28         1.2910   -2.8320    3.6160 c3        1 MOL      0.147966
     88 C29         0.2950   -2.4120    4.7400 c3        1 MOL      0.165283
     89 C30         2.4490   -1.7170    3.5270 c3        1 MOL     -0.388215
     90 C31         0.8780   -2.6800    6.1180 c3        1 MOL     -0.405549
     91 H36        -0.5110   -4.7280    2.6750 hn        1 MOL      0.171136
     92 H37         0.1920   -1.8830    2.0020 h1        1 MOL     -0.012675
     93 H38         1.6360   -3.8160    3.9170 hc        1 MOL      0.001824
     94 H39        -0.6350   -2.9540    4.5780 hc        1 MOL     -0.027047
     95 H40         0.1010   -1.3380    4.6110 hc        1 MOL     -0.027047
     96 H41         3.1090   -2.0370    2.7230 hc        1 MOL      0.099334
     97 H42         2.0870   -0.6920    3.4010 hc        1 MOL      0.099334
     98 H43         3.0260   -1.6560    4.4440 hc        1 MOL      0.099334
     99 H44         0.0720   -2.6730    6.8520 hc        1 MOL      0.093151
    100 H45         1.4960   -3.5830    6.1160 hc        1 MOL      0.093151
    101 H46         1.5140   -1.8480    6.4430 hc        1 MOL      0.093151
    102 N10         1.8730   -2.2090    0.3930 n         1 MOL     -0.110176
    103 C32         2.6100   -2.2390   -0.8790 c3        1 MOL      0.161000
    104 C33         3.9550   -1.5340   -0.6220 c         1 MOL      0.400962
    105 O16         4.1540   -0.8120    0.3790 o         1 MOL     -0.397612
    106 C34         1.7240   -1.4840   -1.9390 c3        1 MOL     -0.531049
    107 C35         0.2460   -1.8810   -2.0760 c         1 MOL      0.936680
    108 O17        -0.6470   -1.1830   -1.5970 o         1 MOL     -0.739015
    109 O18        -0.0740   -2.9380   -2.6750 o         1 MOL     -0.739015
    110 H47         1.7080   -1.3190    0.8460 hn        1 MOL      0.084924
    111 H48         2.8190   -3.2830   -1.1310 h1        1 MOL      0.057808
    112 H49         2.1650   -1.4670   -2.9380 hc        1 MOL      0.139403
    113 H50         1.7340   -0.4370   -1.6300 hc        1 MOL      0.139403
    114 N11         4.9660   -1.7520   -1.4650 n         1 MOL     -0.521597
    115 C36         6.4050   -1.5410   -1.0580 c3        1 MOL      0.206296
    116 C37         6.8100   -0.0620   -1.0650 c         1 MOL      0.328084
    117 O19         7.5690    0.2960   -0.1200 o         1 MOL     -0.474894
    118 C38         7.3490   -2.3870   -1.9360 c3        1 MOL     -0.411385
    119 C39         8.8350   -2.0580   -1.7840 ca        1 MOL      0.294058
    120 C40         9.4180   -1.0450   -2.5750 ca        1 MOL     -0.282130
    121 C41         9.6290   -2.8370   -1.0130 ca        1 MOL     -0.282130
    122 C42        10.7960   -0.7680   -2.4940 ca        1 MOL     -0.007040
    123 C43        11.0600   -2.6110   -0.9540 ca        1 MOL     -0.007040
    124 C44        11.6130   -1.6120   -1.7430 ca        1 MOL     -0.220169
    125 H51         4.7580   -2.2700   -2.3020 hn        1 MOL      0.301675
    126 H52         6.4180   -1.8890   -0.0270 h1        1 MOL      0.122965
    127 H53         7.0320   -2.0860   -2.9290 hc        1 MOL      0.120746
    128 H54         7.0770   -3.4400   -1.8600 hc        1 MOL      0.120746
    129 H55         8.9090   -0.3790   -3.2440 ha        1 MOL      0.139607
    130 H56         9.1280   -3.5070   -0.3270 ha        1 MOL      0.139607
    131 H57        11.1460    0.1300   -2.9910 ha        1 MOL      0.094890
    132 H58        11.6200   -3.2530   -0.2850 ha        1 MOL      0.094890
    133 H59        12.6750   -1.3830   -1.6660 ha        1 MOL      0.119162
    134 N12         6.2930    0.8380   -1.9350 n         1 MOL     -0.009900
    135 C45         6.3930    2.2450   -1.7050 c3        1 MOL     -0.115063
    136 C46         5.6530    2.7370   -0.4240 c         1 MOL      0.428332
    137 O20         6.0800    3.6510    0.2180 o         1 MOL     -0.480249
    138 C47         5.8170    2.8450   -3.0700 c3        1 MOL      0.046972
    139 C48         5.8690    1.7060   -4.1830 c3        1 MOL     -0.279789
    140 C49         5.6170    0.5630   -3.2320 c3        1 MOL      0.172878
    141 H60         7.4510    2.4640   -1.5600 h1        1 MOL      0.086134
    142 H61         4.8230    3.2670   -3.0490 hc        1 MOL      0.036760
    143 H62         6.4730    3.6740   -3.3520 hc        1 MOL      0.036760
    144 H63         5.0620    1.7650   -4.9240 hc        1 MOL      0.090109
    145 H64         6.8630    1.4680   -4.5560 hc        1 MOL      0.090109
    146 H65         4.5730    0.4060   -2.9940 h1        1 MOL     -0.007060
    147 H66         5.9330   -0.3430   -3.7510 h1        1 MOL     -0.007060
    148 N13         4.5820    2.0260    0.0480 n         1 MOL     -0.283042
    149 C50         3.9670    2.3300    1.3600 c3        1 MOL     -0.379277
    150 C51         4.9090    1.7550    2.4590 c         1 MOL      0.504285
    151 O21         4.8570    2.2540    3.5920 o         1 MOL     -0.565054
    152 C52         2.4880    1.7850    1.4640 c3        1 MOL     -0.022125
    153 C53         1.5330    2.3870    0.4080 c3        1 MOL     -0.004473
    154 C54         0.1980    1.7110    0.5410 c         1 MOL      0.494142
    155 O22        -0.6180    2.0440   -0.2840 o         1 MOL     -0.721554
    156 O23        -0.1660    0.8490    1.3340 o         1 MOL     -0.721554
    157 H67         4.2820    1.1390   -0.3090 hn        1 MOL      0.214392
    158 H68         3.8730    3.4110    1.4350 h1        1 MOL      0.231329
    159 H69         2.0170    1.9710    2.4260 hc        1 MOL      0.100397
    160 H70         2.4610    0.6990    1.4000 hc        1 MOL      0.100397
    161 H71         1.8480    2.1810   -0.6110 hc        1 MOL      0.041062
    162 H72         1.4300    3.4390    0.6890 hc        1 MOL      0.041062
    163 N14         5.7740    0.7460    2.2200 n         1 MOL     -0.014376
    164 C55         6.5690    0.1700    3.2720 c3        1 MOL     -0.134430
    165 H73         7.4240   -0.3500    2.8370 h1        1 MOL      0.056336
    166 H74         6.9230    0.9600    3.9350 h1        1 MOL      0.056336
    167 H75         5.9650   -0.5380    3.8390 h1        1 MOL      0.056336
    168 H76         5.6550    0.3950    1.2760 hn        1 MOL      0.014254
    169 Ca1        -2.2410   -0.0300   -0.0340 Ca        1 MOL      1.775093
    170 O24        -2.2040    0.0870    2.7120 oh        1 MOL     -0.821215
    171 H77        -2.4400    0.4040    3.5820 ho        1 MOL      0.396937
    172 H78        -1.2650    0.2350    2.6480 ho        1 MOL      0.396937
@<TRIPOS>BOND
     1    1    2 1   
     2    1    4 1   
     3    1    5 1   
     4    1    6 1   
     5    2    3 2   
     6    2    7 1   
     7    7    8 1   
     8    7   15 1   
     9    8    9 1   
    10    8   11 1   
    11    8   16 1   
    12    9   10 2   
    13    9   19 1   
    14   11   12 1   
    15   11   17 1   
    16   11   18 1   
    17   12   13 1   
    18   12   14 1   
    19   19   20 1   
    20   19   24 1   
    21   20   21 1   
    22   20   23 1   
    23   20   25 1   
    24   21   22 2   
    25   21   29 1   
    26   23   26 1   
    27   23   27 1   
    28   23   28 1   
    29   29   30 1   
    30   29   37 1   
    31   30   31 1   
    32   30   33 1   
    33   30   38 1   
    34   31   32 2   
    35   31   41 1   
    36   33   34 1   
    37   33   39 1   
    38   33   40 1   
    39   34   35 1   
    40   34   36 1   
    41   41   42 1   
    42   41   45 1   
    43   42   43 1   
    44   42   46 1   
    45   42   47 1   
    46   43   44 2   
    47   43   48 1   
    48   48   49 1   
    49   48   56 1   
    50   49   50 1   
    51   49   52 1   
    52   49   57 1   
    53   50   51 2   
    54   50   62 1   
    55   52   53 1   
    56   52   58 1   
    57   52   59 1   
    58   53   54 1   
    59   53   55 2   
    60   54   60 1   
    61   54   61 1   
    62   62   63 1   
    63   62   66 1   
    64   63   64 1   
    65   63   67 1   
    66   63   68 1   
    67   64   65 2   
    68   64   69 1   
    69   69   70 1   
    70   69   76 1   
    71   70   71 1   
    72   70   73 1   
    73   70   77 1   
    74   71   72 2   
    75   71   83 1   
    76   73   74 1   
    77   73   75 1   
    78   73   78 1   
    79   74   80 1   
    80   74   81 1   
    81   74   82 1   
    82   75   79 1   
    83   83   84 1   
    84   83   91 1   
    85   84   85 1   
    86   84   87 1   
    87   84   92 1   
    88   85   86 2   
    89   85  102 1   
    90   87   88 1   
    91   87   89 1   
    92   87   93 1   
    93   88   90 1   
    94   88   94 1   
    95   88   95 1   
    96   89   96 1   
    97   89   97 1   
    98   89   98 1   
    99   90   99 1   
   100   90  100 1   
   101   90  101 1   
   102  102  103 1   
   103  102  110 1   
   104  103  104 1   
   105  103  106 1   
   106  103  111 1   
   107  104  105 2   
   108  104  114 1   
   109  106  107 1   
   110  106  112 1   
   111  106  113 1   
   112  107  108 1   
   113  107  109 1   
   114  114  115 1   
   115  114  125 1   
   116  115  116 1   
   117  115  118 1   
   118  115  126 1   
   119  116  117 2   
   120  116  134 1   
   121  118  119 1   
   122  118  127 1   
   123  118  128 1   
   124  119  120 ar  
   125  119  121 ar  
   126  120  122 ar  
   127  120  129 1   
   128  121  123 ar  
   129  121  130 1   
   130  122  124 ar  
   131  122  131 1   
   132  123  124 ar  
   133  123  132 1   
   134  124  133 1   
   135  134  135 1   
   136  134  140 1   
   137  135  136 1   
   138  135  138 1   
   139  135  141 1   
   140  136  137 2   
   141  136  148 1   
   142  138  139 1   
   143  138  142 1   
   144  138  143 1   
   145  139  140 1   
   146  139  144 1   
   147  139  145 1   
   148  140  146 1   
   149  140  147 1   
   150  148  149 1   
   151  148  157 1   
   152  149  150 1   
   153  149  152 1   
   154  149  158 1   
   155  150  151 2   
   156  150  163 1   
   157  152  153 1   
   158  152  159 1   
   159  152  160 1   
   160  153  154 1   
   161  153  161 1   
   162  153  162 1   
   163  154  155 1   
   164  154  156 1   
   165  163  164 1   
   166  163  168 1   
   167  164  165 1   
   168  164  166 1   
   169  164  167 1   
   170  170  171 1   
   171  170  172 1   
@<TRIPOS>SUBSTRUCTURE
     1 MOL         1 TEMP              0 ****  ****    0 ROOT
