@<TRIPOS>MOLECULE
MOL
  176   174     1     0     0
SMALL
resp


@<TRIPOS>ATOM
      1 C1          2.0970    3.8110    6.5700 c3        1 MOL     -0.372253
      2 C2          1.8870    3.0980    5.2050 c         1 MOL      0.701395
      3 O1          2.8100    2.5680    4.5810 o         1 MOL     -0.571970
      4 H1          2.4810    4.8160    6.3990 hc        1 MOL      0.096428
      5 H2          1.1460    3.8710    7.0990 hc        1 MOL      0.096428
      6 H3          2.8110    3.2470    7.1700 hc        1 MOL      0.096428
      7 N1          0.6810    3.1550    4.6680 n         1 MOL     -0.547657
      8 C3          0.3080    2.6360    3.3630 c3        1 MOL      0.090077
      9 C4          0.1920    3.7780    2.3550 c         1 MOL      0.551660
     10 O2         -0.2590    4.8860    2.6580 o         1 MOL     -0.562837
     11 C5         -0.9920    1.8750    3.4880 c3        1 MOL     -0.401154
     12 C6         -1.2550    1.1560    2.1980 c         1 MOL      0.839788
     13 O3         -0.3200    0.8800    1.3680 o         1 MOL     -0.789415
     14 O4         -2.4200    0.9010    1.8820 o         1 MOL     -0.789415
     15 H4         -0.1130    3.6260    5.0870 hn        1 MOL      0.307395
     16 H5          1.0730    1.9320    3.0560 h1        1 MOL      0.110005
     17 H6         -1.7700    2.5950    3.7220 hc        1 MOL      0.113402
     18 H7         -0.9450    1.0560    4.2080 hc        1 MOL      0.113402
     19 N2          0.6650    3.6320    1.1060 n         1 MOL     -0.251923
     20 C7          0.9210    4.7590    0.1660 c3        1 MOL     -0.119156
     21 C8         -0.3460    5.2160   -0.5630 c         1 MOL      0.495043
     22 O5         -0.4340    6.3940   -0.9910 o         1 MOL     -0.580080
     23 C9          1.9280    4.3690   -0.8950 c3        1 MOL      0.022246
     24 C10         2.6050    5.6630   -1.5300 c3        1 MOL     -0.161798
     25 C11         3.8630    5.2270   -2.3030 c3        1 MOL      0.039164
     26 C12         4.5570    6.3310   -3.0320 c3        1 MOL     -0.011737
     27 N3          5.5080    5.8690   -4.0480 n4        1 MOL     -0.393345
     28 H8          1.0200    2.7160    0.8440 hn        1 MOL      0.104789
     29 H9          1.2960    5.6180    0.7250 h1        1 MOL      0.127167
     30 H10         1.5340    3.7200   -1.6670 hc        1 MOL      0.063167
     31 H11         2.6990    3.7710   -0.4140 hc        1 MOL      0.063167
     32 H12         2.8870    6.4320   -0.8100 hc        1 MOL      0.067579
     33 H13         1.9190    6.1810   -2.1960 hc        1 MOL      0.067579
     34 H14         3.5770    4.5280   -3.0970 hc        1 MOL      0.053989
     35 H15         4.5860    4.8800   -1.5610 hc        1 MOL      0.053989
     36 H16         5.1540    6.8780   -2.3080 hx        1 MOL      0.089459
     37 H17         3.7720    6.9220   -3.5070 hx        1 MOL      0.089459
     38 H18         5.1050    5.1990   -4.6920 hn        1 MOL      0.337715
     39 H19         5.7640    6.6610   -4.6190 hn        1 MOL      0.337715
     40 H20         6.3690    5.5110   -3.6580 hn        1 MOL      0.337715
     41 N4         -1.3010    4.3270   -0.7150 n         1 MOL     -0.166253
     42 C13        -2.6290    4.6450   -1.2760 c3        1 MOL     -0.097761
     43 C14        -3.7600    3.7700   -0.5580 c         1 MOL      0.338019
     44 O6         -3.5450    2.5890   -0.2640 o         1 MOL     -0.394526
     45 C15        -2.7670    4.4370   -2.8270 c3        1 MOL      0.018542
     46 C16        -2.4590    3.0640   -3.4520 c         1 MOL      0.683615
     47 O7         -2.2740    2.0290   -2.7490 o         1 MOL     -0.694501
     48 O8         -2.3430    2.9760   -4.6570 o         1 MOL     -0.694501
     49 H21        -1.0230    3.3690   -0.5600 hn        1 MOL      0.128336
     50 H22        -2.8530    5.6830   -1.0100 h1        1 MOL      0.082008
     51 H23        -2.2450    5.2320   -3.3500 hc        1 MOL     -0.008900
     52 H24        -3.8450    4.5570   -2.9480 hc        1 MOL     -0.008900
     53 N5         -4.8960    4.4390   -0.2910 n         1 MOL     -0.184271
     54 C17        -5.8460    3.8690    0.6690 c3        1 MOL     -0.214718
     55 C18        -6.8100    2.8640    0.0050 c         1 MOL      0.653853
     56 O9         -7.7430    3.3530   -0.6760 o         1 MOL     -0.546552
     57 H25        -4.9960    5.4180   -0.5490 hn        1 MOL      0.263261
     58 H26        -6.3770    4.6120    1.2690 h1        1 MOL      0.103226
     59 H27        -5.2430    3.3600    1.4050 h1        1 MOL      0.103226
     60 N6         -6.5390    1.5380    0.1540 n         1 MOL     -0.699708
     61 C19        -7.2210    0.4740   -0.6300 c3        1 MOL      0.174341
     62 C20        -7.3570   -0.8100    0.2320 c         1 MOL      0.486205
     63 O10        -7.9470   -1.7320   -0.2890 o         1 MOL     -0.536573
     64 C21        -6.4650    0.2160   -1.9260 c3        1 MOL     -0.344962
     65 C22        -5.2620   -0.7270   -1.7800 c         1 MOL      0.670806
     66 N7         -5.2570   -1.8100   -2.4360 n         1 MOL     -0.576024
     67 O11        -4.3860   -0.5160   -0.9710 o         1 MOL     -0.760202
     68 H28        -5.7210    1.3200    0.7000 hn        1 MOL      0.342260
     69 H29        -8.2740    0.7140   -0.8040 h1        1 MOL      0.120481
     70 H30        -5.9340    1.0900   -2.3160 hc        1 MOL      0.120968
     71 H31        -7.1690   -0.2450   -2.6170 hc        1 MOL      0.120968
     72 H32        -5.8990   -1.9920   -3.1950 hn        1 MOL      0.323331
     73 H33        -4.7730   -2.6200   -2.0640 hn        1 MOL      0.323331
     74 N8         -6.9440   -0.8900    1.4590 n         1 MOL     -0.349557
     75 C23        -6.9520   -2.1280    2.2440 c3        1 MOL     -0.074897
     76 C24        -5.6540   -2.9040    2.4200 c         1 MOL      0.579889
     77 O12        -5.6170   -3.6680    3.3760 o         1 MOL     -0.578589
     78 H34        -6.5260   -0.1440    1.9980 hn        1 MOL      0.284547
     79 H35        -7.6990   -2.7700    1.7790 h1        1 MOL      0.087995
     80 H36        -7.2770   -1.8800    3.2480 h1        1 MOL      0.087995
     81 N9         -4.5640   -2.6170    1.7320 n         1 MOL     -0.425247
     82 C25        -3.3110   -3.4350    1.8540 c3        1 MOL      0.108020
     83 C26        -2.0690   -2.7180    1.4130 c         1 MOL      0.417876
     84 O13        -2.0540   -1.8100    0.5520 o         1 MOL     -0.399226
     85 C27        -3.5180   -4.7040    1.0400 c3        1 MOL     -0.172883
     86 C28        -3.8880   -4.5770   -0.4150 ca        1 MOL      0.109631
     87 C29        -2.8870   -4.2700   -1.2990 ca        1 MOL     -0.121764
     88 C30        -5.1860   -4.9970   -0.8450 ca        1 MOL     -0.121764
     89 C31        -3.0970   -4.3940   -2.7080 ca        1 MOL     -0.346902
     90 C32        -5.3330   -5.2340   -2.2140 ca        1 MOL     -0.346902
     91 C33        -4.2940   -4.9120   -3.1680 ca        1 MOL      0.364625
     92 O14        -4.4970   -5.0390   -4.4730 oh        1 MOL     -0.483146
     93 H37        -4.6330   -2.1000    0.8670 hn        1 MOL      0.274771
     94 H38        -3.1820   -3.6730    2.9110 h1        1 MOL      0.096775
     95 H39        -4.1510   -5.4080    1.5750 hc        1 MOL      0.062731
     96 H40        -2.5440   -5.2060    1.0420 hc        1 MOL      0.062731
     97 H41        -1.8890   -4.0060   -0.9800 ha        1 MOL      0.157227
     98 H42        -5.9550   -5.3200   -0.1650 ha        1 MOL      0.157227
     99 H43        -2.2640   -4.1310   -3.3390 ha        1 MOL      0.174940
    100 H44        -6.2090   -5.7160   -2.6360 ha        1 MOL      0.174940
    101 H45        -3.6330   -4.9690   -4.8900 ho        1 MOL      0.365668
    102 N10        -0.9770   -3.1030    2.0670 n         1 MOL     -0.504884
    103 C34         0.4660   -2.6210    1.8370 c3        1 MOL     -0.075511
    104 C35         1.2360   -3.5570    0.9940 c         1 MOL      0.495596
    105 O15         0.9420   -4.7790    0.9120 o         1 MOL     -0.541805
    106 C36         1.1010   -2.2280    3.2500 c3        1 MOL      0.123287
    107 C37         2.2200   -1.1090    3.2520 c3        1 MOL      0.397011
    108 C38         1.5810   -3.5380    3.8870 c3        1 MOL     -0.326287
    109 C39         2.3710   -0.6150    4.7240 c3        1 MOL     -0.356079
    110 H46        -1.0540   -3.8680    2.7160 hn        1 MOL      0.313502
    111 H47         0.4260   -1.7250    1.2130 h1        1 MOL      0.231884
    112 H48         0.3110   -1.8250    3.8880 hc        1 MOL      0.022511
    113 H49         1.8310   -0.3130    2.6310 hc        1 MOL     -0.137704
    114 H50         3.1270   -1.5580    2.8320 hc        1 MOL     -0.137704
    115 H51         1.8440   -3.4390    4.9420 hc        1 MOL      0.075123
    116 H52         0.7890   -4.2780    3.7470 hc        1 MOL      0.075123
    117 H53         2.4430   -3.8800    3.3060 hc        1 MOL      0.075123
    118 H54         1.4400   -0.1210    4.9810 hc        1 MOL      0.077896
    119 H55         2.6090   -1.4510    5.3780 hc        1 MOL      0.077896
    120 H56         3.1360    0.1630    4.6720 hc        1 MOL      0.077896
    121 N11         2.3710   -3.0900    0.4220 n         1 MOL     -0.266449
    122 C40         3.3090   -3.9840   -0.2630 c3        1 MOL      0.100271
    123 C41         4.7990   -3.6680    0.0940 c         1 MOL      0.357167
    124 O16         4.9970   -2.7080    0.8200 o         1 MOL     -0.307337
    125 C42         3.0550   -4.0080   -1.7790 c3        1 MOL     -0.221858
    126 O17         3.7650   -2.9240   -2.3060 oh        1 MOL     -0.479694
    127 H57         2.6590   -2.1430    0.5790 hn        1 MOL      0.168079
    128 H58         3.1950   -5.0400   -0.0130 h1        1 MOL      0.062661
    129 H59         1.9880   -3.9400   -1.9910 h1        1 MOL      0.124911
    130 H60         3.5360   -4.9050   -2.1850 h1        1 MOL      0.124911
    131 H61         3.1840   -2.6690   -3.0340 ho        1 MOL      0.401275
    132 N12         5.7380   -4.4930   -0.3470 n         1 MOL     -0.446682
    133 C43         7.1650   -4.1690   -0.3090 c3        1 MOL      0.140450
    134 C44         7.4680   -2.7830   -0.9050 c         1 MOL      0.506331
    135 O18         8.1360   -2.0400   -0.2050 o         1 MOL     -0.527751
    136 C45         7.8880   -5.1990   -1.1100 c3        1 MOL     -0.216252
    137 H62         5.5260   -5.2720   -0.9480 hn        1 MOL      0.319332
    138 H63         7.4890   -4.0790    0.7220 h1        1 MOL      0.068135
    139 H64         7.7410   -4.8860   -2.1440 hc        1 MOL      0.060681
    140 H65         8.9640   -5.2060   -0.9540 hc        1 MOL      0.060681
    141 H66         7.5100   -6.2120   -0.9960 hc        1 MOL      0.060681
    142 N13         6.9320   -2.4130   -2.0660 n         1 MOL     -0.413738
    143 C46         7.2160   -0.9830   -2.5060 c3        1 MOL      0.108181
    144 C47         6.6280    0.1400   -1.7070 c         1 MOL      0.361028
    145 O19         7.1800    1.1960   -1.5660 o         1 MOL     -0.501682
    146 C48         6.8640   -0.9970   -4.0000 c3        1 MOL     -0.274410
    147 H67         6.3340   -3.0500   -2.5760 hn        1 MOL      0.295632
    148 H68         8.3010   -0.8730   -2.4420 h1        1 MOL      0.091154
    149 H69         5.9350   -1.5410   -4.1580 hc        1 MOL      0.071743
    150 H70         6.7450    0.0350   -4.3080 hc        1 MOL      0.071743
    151 H71         7.5970   -1.5810   -4.5660 hc        1 MOL      0.071743
    152 N14         5.4600   -0.1800   -1.1520 n         1 MOL     -0.010190
    153 C49         4.7630    0.7590   -0.2770 c3        1 MOL     -0.046441
    154 C50         5.5620    0.8830    1.0750 c         1 MOL      0.417551
    155 O20         5.7750    1.9620    1.5690 o         1 MOL     -0.514985
    156 C51         3.2350    0.5180   -0.0690 c3        1 MOL     -0.105515
    157 C52         2.5870    0.3950   -1.4190 c3        1 MOL      0.101643
    158 C53         1.0030    0.3840   -1.2730 c         1 MOL      0.618780
    159 O21         0.3750   -0.6830   -1.1320 o         1 MOL     -0.715609
    160 O22         0.3050    1.4270   -1.3630 o         1 MOL     -0.715609
    161 H72         4.9720   -1.0390   -1.3770 hn        1 MOL      0.026655
    162 H73         4.7350    1.7420   -0.7390 h1        1 MOL     -0.024469
    163 H74         2.7250    1.2740    0.5300 hc        1 MOL      0.105772
    164 H75         3.1080   -0.4340    0.4590 hc        1 MOL      0.105772
    165 H76         2.7970   -0.5540   -1.9030 hc        1 MOL     -0.051004
    166 H77         2.9000    1.1910   -2.0890 hc        1 MOL     -0.051004
    167 N15         6.0640   -0.2590    1.5950 n         1 MOL     -0.030942
    168 C54         6.8280   -0.4120    2.8280 c3        1 MOL     -0.205853
    169 H78         6.9370    0.5590    3.3100 h1        1 MOL      0.085431
    170 H79         6.3030   -1.0930    3.4980 h1        1 MOL      0.085431
    171 H80         7.8140   -0.8170    2.5980 h1        1 MOL      0.085431
    172 H81         5.6470   -1.0990    1.2100 hn        1 MOL      0.055975
    173 Ca1        -2.0010    0.4550   -0.7430 Ca        1 MOL      1.723691
    174 O23        -2.4050   -1.3280   -2.8320 oh        1 MOL     -0.883905
    175 H82        -1.7160   -1.8250   -3.2530 ho        1 MOL      0.410419
    176 H83        -2.8130   -0.8230   -3.5310 ho        1 MOL      0.410419
@<TRIPOS>BOND
     1    1    2 1   
     2    1    4 1   
     3    1    5 1   
     4    1    6 1   
     5    2    3 2   
     6    2    7 1   
     7    7    8 1   
     8    7   15 1   
     9    8    9 1   
    10    8   11 1   
    11    8   16 1   
    12    9   10 2   
    13    9   19 1   
    14   11   12 1   
    15   11   17 1   
    16   11   18 1   
    17   12   13 1   
    18   12   14 1   
    19   19   20 1   
    20   19   28 1   
    21   20   21 1   
    22   20   23 1   
    23   20   29 1   
    24   21   22 2   
    25   21   41 1   
    26   23   24 1   
    27   23   30 1   
    28   23   31 1   
    29   24   25 1   
    30   24   32 1   
    31   24   33 1   
    32   25   26 1   
    33   25   34 1   
    34   25   35 1   
    35   26   27 1   
    36   26   36 1   
    37   26   37 1   
    38   27   38 1   
    39   27   39 1   
    40   27   40 1   
    41   41   42 1   
    42   41   49 1   
    43   42   43 1   
    44   42   45 1   
    45   42   50 1   
    46   43   44 2   
    47   43   53 1   
    48   45   46 1   
    49   45   51 1   
    50   45   52 1   
    51   46   47 1   
    52   46   48 1   
    53   53   54 1   
    54   53   57 1   
    55   54   55 1   
    56   54   58 1   
    57   54   59 1   
    58   55   56 2   
    59   55   60 1   
    60   60   61 1   
    61   60   68 1   
    62   61   62 1   
    63   61   64 1   
    64   61   69 1   
    65   62   63 2   
    66   62   74 1   
    67   64   65 1   
    68   64   70 1   
    69   64   71 1   
    70   65   66 1   
    71   65   67 2   
    72   66   72 1   
    73   66   73 1   
    74   74   75 1   
    75   74   78 1   
    76   75   76 1   
    77   75   79 1   
    78   75   80 1   
    79   76   77 2   
    80   76   81 1   
    81   81   82 1   
    82   81   93 1   
    83   82   83 1   
    84   82   85 1   
    85   82   94 1   
    86   83   84 2   
    87   83  102 1   
    88   85   86 1   
    89   85   95 1   
    90   85   96 1   
    91   86   87 ar  
    92   86   88 ar  
    93   87   89 ar  
    94   87   97 1   
    95   88   90 ar  
    96   88   98 1   
    97   89   91 ar  
    98   89   99 1   
    99   90   91 ar  
   100   90  100 1   
   101   91   92 1   
   102   92  101 1   
   103  102  103 1   
   104  102  110 1   
   105  103  104 1   
   106  103  106 1   
   107  103  111 1   
   108  104  105 2   
   109  104  121 1   
   110  106  107 1   
   111  106  108 1   
   112  106  112 1   
   113  107  109 1   
   114  107  113 1   
   115  107  114 1   
   116  108  115 1   
   117  108  116 1   
   118  108  117 1   
   119  109  118 1   
   120  109  119 1   
   121  109  120 1   
   122  121  122 1   
   123  121  127 1   
   124  122  123 1   
   125  122  125 1   
   126  122  128 1   
   127  123  124 2   
   128  123  132 1   
   129  125  126 1   
   130  125  129 1   
   131  125  130 1   
   132  126  131 1   
   133  132  133 1   
   134  132  137 1   
   135  133  134 1   
   136  133  136 1   
   137  133  138 1   
   138  134  135 2   
   139  134  142 1   
   140  136  139 1   
   141  136  140 1   
   142  136  141 1   
   143  142  143 1   
   144  142  147 1   
   145  143  144 1   
   146  143  146 1   
   147  143  148 1   
   148  144  145 2   
   149  144  152 1   
   150  146  149 1   
   151  146  150 1   
   152  146  151 1   
   153  152  153 1   
   154  152  161 1   
   155  153  154 1   
   156  153  156 1   
   157  153  162 1   
   158  154  155 2   
   159  154  167 1   
   160  156  157 1   
   161  156  163 1   
   162  156  164 1   
   163  157  158 1   
   164  157  165 1   
   165  157  166 1   
   166  158  159 1   
   167  158  160 1   
   168  167  168 1   
   169  167  172 1   
   170  168  169 1   
   171  168  170 1   
   172  168  171 1   
   173  174  175 1   
   174  174  176 1   
@<TRIPOS>SUBSTRUCTURE
     1 MOL         1 TEMP              0 ****  ****    0 ROOT
