@<TRIPOS>MOLECULE
MOL
  189   185     1     0     0
SMALL
resp


@<TRIPOS>ATOM
      1 C1         -0.0730   -4.6170    5.6730 c3        1 MOL     -0.377542
      2 C2          0.3490   -3.9860    4.3430 c         1 MOL      0.808962
      3 O1          0.4540   -2.7990    4.2840 o         1 MOL     -0.636130
      4 H1          0.2400   -5.6610    5.6940 hc        1 MOL      0.090461
      5 H2          0.3970   -4.0800    6.4960 hc        1 MOL      0.090461
      6 H3         -1.1570   -4.5610    5.7750 hc        1 MOL      0.090461
      7 N1          0.5750   -4.7070    3.2700 n         1 MOL     -0.707925
      8 C3          1.3220   -4.2070    2.1680 c3        1 MOL      0.218834
      9 C4          1.3520   -5.0630    0.8660 c         1 MOL      0.440781
     10 O2          1.7300   -6.2470    0.8660 o         1 MOL     -0.564360
     11 C5          2.8350   -4.1520    2.5820 c3        1 MOL     -0.236209
     12 C6          3.7430   -3.2970    1.6570 c         1 MOL      0.838958
     13 O3          4.8990   -3.0440    2.0090 o         1 MOL     -0.716936
     14 O4          3.2130   -2.7840    0.6670 o         1 MOL     -0.716936
     15 H4          0.3880   -5.6820    3.4270 hn        1 MOL      0.341729
     16 H5          1.0630   -3.1810    1.8860 h1        1 MOL      0.189673
     17 H6          3.2980   -5.1350    2.6770 hc        1 MOL      0.037534
     18 H7          2.8860   -3.6920    3.5740 hc        1 MOL      0.037534
     19 N2          0.8890   -4.4900   -0.2480 n         1 MOL     -0.243421
     20 C7          0.5890   -5.1550   -1.5030 c3        1 MOL     -0.041986
     21 C8          1.7400   -5.0310   -2.5010 c         1 MOL      0.670665
     22 O5          1.8730   -5.8090   -3.4260 o         1 MOL     -0.610538
     23 C9         -0.8420   -4.8600   -1.9940 c3        1 MOL      0.166048
     24 C10        -1.8710   -4.9460   -0.7930 c3        1 MOL     -0.055768
     25 C11        -1.2890   -5.8300   -3.1190 c3        1 MOL     -0.257591
     26 C12        -3.3800   -4.9570   -1.2170 c3        1 MOL     -0.159938
     27 H8          0.5920   -3.5200   -0.1630 hn        1 MOL      0.056865
     28 H9          0.6900   -6.2160   -1.2720 h1        1 MOL      0.045563
     29 H10        -0.8880   -3.8690   -2.4500 hc        1 MOL      0.032408
     30 H11        -1.7330   -4.0590   -0.1710 hc        1 MOL      0.023212
     31 H12        -1.7040   -5.7820   -0.1260 hc        1 MOL      0.023212
     32 H13        -1.3970   -6.8710   -2.8300 hc        1 MOL      0.049293
     33 H14        -2.2500   -5.4540   -3.4760 hc        1 MOL      0.049293
     34 H15        -0.6220   -5.8070   -3.9780 hc        1 MOL      0.049293
     35 H16        -3.7240   -5.8630   -1.7110 hc        1 MOL      0.048444
     36 H17        -3.9620   -4.7560   -0.3190 hc        1 MOL      0.048444
     37 H18        -3.5330   -4.1660   -1.9510 hc        1 MOL      0.048444
     38 N3          2.6700   -4.1260   -2.2820 n         1 MOL     -0.516673
     39 C13         3.6540   -3.7380   -3.3030 c3        1 MOL      0.140168
     40 C14         5.0420   -3.5110   -2.7470 c         1 MOL      0.312971
     41 O6          6.0300   -3.5670   -3.4860 o         1 MOL     -0.567078
     42 C15         3.2100   -2.4840   -4.0690 c3        1 MOL     -0.302792
     43 C16         2.7900   -1.3160   -3.2320 c         1 MOL      0.735538
     44 O7          3.2410   -1.2140   -2.0470 o         1 MOL     -0.679430
     45 O8          2.1080   -0.4120   -3.7550 o         1 MOL     -0.679430
     46 H19         2.6680   -3.6140   -1.4100 hn        1 MOL      0.332617
     47 H20         3.6610   -4.4810   -4.1040 h1        1 MOL      0.087047
     48 H21         2.3460   -2.7190   -4.6890 hc        1 MOL      0.085608
     49 H22         4.0480   -2.1740   -4.6940 hc        1 MOL      0.085608
     50 N4          5.2140   -3.2280   -1.4810 n         1 MOL     -0.025154
     51 C17         6.4780   -2.8350   -0.7910 c3        1 MOL     -0.269289
     52 C18         7.0900   -1.4800   -1.0950 c         1 MOL      0.630236
     53 O9          8.2880   -1.3310   -0.8640 o         1 MOL     -0.625506
     54 H23         4.3750   -3.1990   -0.9110 hn        1 MOL      0.031767
     55 H24         7.2660   -3.4950   -1.1580 h1        1 MOL      0.107554
     56 H25         6.3930   -2.9480    0.2910 h1        1 MOL      0.107554
     57 N5          6.2980   -0.4940   -1.5970 n         1 MOL     -0.247487
     58 C19         6.7980    0.7270   -2.1670 c3        1 MOL     -0.120721
     59 C20         7.3280    1.7460   -1.0680 c         1 MOL      0.476110
     60 O10         7.8820    2.7990   -1.4760 o         1 MOL     -0.548812
     61 C21         5.7160    1.4170   -2.9990 c3        1 MOL     -0.219184
     62 C22         4.4850    1.9010   -2.2240 c         1 MOL      0.736707
     63 O11         4.3120    1.3540   -1.0880 o         1 MOL     -0.689503
     64 O12         3.6060    2.6370   -2.7820 o         1 MOL     -0.689503
     65 H26         5.3090   -0.6480   -1.7300 hn        1 MOL      0.279934
     66 H27         7.6080    0.4940   -2.8550 h1        1 MOL      0.105405
     67 H28         5.3950    0.7610   -3.7980 hc        1 MOL      0.069274
     68 H29         6.0430    2.3200   -3.5210 hc        1 MOL      0.069274
     69 N6          7.2450    1.4530    0.2500 n         1 MOL     -0.268276
     70 C23         7.5560    2.3530    1.3270 c3        1 MOL     -0.057996
     71 C24         6.4960    3.4780    1.4040 c         1 MOL      0.388267
     72 O13         6.7540    4.6520    1.8080 o         1 MOL     -0.562904
     73 H30         6.7030    0.6160    0.4060 hn        1 MOL      0.188542
     74 H31         8.5780    2.7250    1.2590 h1        1 MOL      0.078627
     75 H32         7.5460    1.7940    2.2560 h1        1 MOL      0.078627
     76 N7          5.2140    3.1860    1.1340 n         1 MOL     -0.151639
     77 C25         4.0890    4.0630    1.4240 c3        1 MOL     -0.026907
     78 C26         2.9220    3.2160    1.7850 c         1 MOL      0.312476
     79 O14         2.8510    2.0220    1.4650 o         1 MOL     -0.523173
     80 C27         3.7510    4.9850    0.2730 c3        1 MOL      0.301209
     81 C28         4.7590    6.1220    0.1120 c3        1 MOL     -0.588025
     82 C29         4.2220    7.1400   -0.8490 c         1 MOL      0.774302
     83 N8          4.3270    6.9290   -2.1700 n         1 MOL     -0.855373
     84 O15         3.6250    8.1250   -0.5100 o         1 MOL     -0.593063
     85 H33         4.9590    2.2790    0.7580 hn        1 MOL      0.177583
     86 H34         4.2920    4.7440    2.2530 h1        1 MOL      0.055376
     87 H35         2.8010    5.4350    0.5390 hc        1 MOL     -0.018970
     88 H36         3.7440    4.4010   -0.6440 hc        1 MOL     -0.018970
     89 H37         5.6140    5.5370   -0.2250 hc        1 MOL      0.164859
     90 H38         5.0410    6.6250    1.0350 hc        1 MOL      0.164859
     91 H39         4.8710    6.1160   -2.4430 hn        1 MOL      0.374204
     92 H40         3.8830    7.4810   -2.8930 hn        1 MOL      0.374204
     93 N9          1.7660    3.7270    2.2300 n         1 MOL     -0.229528
     94 C30         0.3900    3.0440    2.4040 c3        1 MOL     -0.138429
     95 C31        -0.5940    3.3700    1.2250 c         1 MOL      0.379416
     96 O16        -0.7680    4.5110    0.7620 o         1 MOL     -0.554077
     97 C32        -0.2660    3.4000    3.7930 c3        1 MOL      0.250105
     98 C33        -1.3590    2.3900    4.1460 c3        1 MOL     -0.268604
     99 C34         0.7280    3.3620    4.9450 c3        1 MOL     -0.268604
    100 H41         1.7260    4.6940    2.5280 hn        1 MOL      0.230849
    101 H42         0.5400    1.9730    2.4640 h1        1 MOL      0.179715
    102 H43        -0.7790    4.3570    3.9240 hc        1 MOL     -0.014030
    103 H44        -2.0270    2.7770    4.9040 hc        1 MOL      0.055959
    104 H45        -1.9070    1.9550    3.3060 hc        1 MOL      0.055959
    105 H46        -0.8780    1.5640    4.6680 hc        1 MOL      0.055959
    106 H47         1.5040    4.1020    4.7680 hc        1 MOL      0.055959
    107 H48         0.2140    3.6990    5.8490 hc        1 MOL      0.055959
    108 H49         1.1010    2.3520    5.1250 hc        1 MOL      0.055959
    109 N10        -1.1780    2.3040    0.6650 n         1 MOL      0.033584
    110 C35        -2.3300    2.5410   -0.2640 c3        1 MOL      0.077632
    111 C36        -3.7040    2.4830    0.5360 c         1 MOL      0.212588
    112 O17        -3.7430    1.9730    1.6440 o         1 MOL     -0.235286
    113 C37        -2.2570    1.3300   -1.3030 c3        1 MOL     -0.551602
    114 C38        -3.3100    1.3980   -2.3510 c         1 MOL      0.826951
    115 N11        -3.4100    2.4630   -3.0350 n         1 MOL     -0.846546
    116 O18        -4.2590    0.6730   -2.4590 o         1 MOL     -0.606510
    117 H50        -0.9890    1.3700    0.9870 hn        1 MOL      0.004560
    118 H51        -2.2610    3.4870   -0.8110 h1        1 MOL      0.066891
    119 H52        -2.4040    0.3840   -0.7830 hc        1 MOL      0.196768
    120 H53        -1.2740    1.3210   -1.7830 hc        1 MOL      0.196768
    121 H54        -2.7850    3.2620   -2.9530 hn        1 MOL      0.373804
    122 H55        -4.1290    2.5340   -3.7340 hn        1 MOL      0.373804
    123 N12        -4.8580    2.9230   -0.0560 n         1 MOL     -0.310247
    124 C39        -6.2080    2.8290    0.6450 c3        1 MOL      0.164254
    125 C40        -6.5750    1.3830    0.9760 c         1 MOL      0.257913
    126 O19        -7.1910    1.2350    2.0650 o         1 MOL     -0.549862
    127 C41        -7.3760    3.5070   -0.1520 c3        1 MOL     -0.292765
    128 C42        -7.4370    3.3660   -1.6350 ca        1 MOL      0.070957
    129 C43        -6.9200    4.2830   -2.5380 ca        1 MOL     -0.146991
    130 C44        -7.9400    2.1470   -2.1340 ca        1 MOL     -0.146991
    131 C45        -6.9590    4.0600   -3.9410 ca        1 MOL     -0.299370
    132 C46        -7.9390    1.8460   -3.5260 ca        1 MOL     -0.299370
    133 C47        -7.5480    2.8520   -4.4250 ca        1 MOL      0.391320
    134 O20        -7.5270    2.6770   -5.7510 oh        1 MOL     -0.545967
    135 H56        -4.8530    3.3630   -0.9650 hn        1 MOL      0.210210
    136 H57        -6.1200    3.3210    1.6120 h1        1 MOL      0.060059
    137 H58        -7.4000    4.5770    0.0620 hc        1 MOL      0.107021
    138 H59        -8.3220    3.0880    0.1740 hc        1 MOL      0.107021
    139 H60        -6.5040    5.2010   -2.1570 ha        1 MOL      0.116775
    140 H61        -8.2890    1.3940   -1.4390 ha        1 MOL      0.116775
    141 H62        -6.5390    4.7720   -4.6290 ha        1 MOL      0.141592
    142 H63        -8.3500    0.9530   -3.9910 ha        1 MOL      0.141592
    143 H64        -8.0260    1.8790   -5.9610 ho        1 MOL      0.405675
    144 N13        -6.1760    0.3750    0.1890 n         1 MOL      0.042264
    145 C48        -6.5420   -1.0190    0.3490 c3        1 MOL     -0.092302
    146 C49        -5.8110   -1.7010    1.4650 c         1 MOL      0.286344
    147 O21        -6.2060   -2.6380    2.1420 o         1 MOL     -0.484892
    148 C50        -6.2890   -1.8410   -1.0030 c3        1 MOL      0.273813
    149 C51        -7.2450   -1.5910   -2.1590 c3        1 MOL     -0.326608
    150 C52        -8.5620   -2.0940   -1.8460 c         1 MOL      0.692403
    151 O22        -8.8370   -3.0980   -1.1660 o         1 MOL     -0.723502
    152 O23        -9.4730   -1.3270   -2.0950 o         1 MOL     -0.723502
    153 H65        -6.0070    0.6780   -0.7620 hn        1 MOL      0.281088
    154 H66        -7.6010   -0.9690    0.6150 h1        1 MOL      0.142673
    155 H67        -6.2090   -2.8990   -0.7620 hc        1 MOL     -0.060314
    156 H68        -5.2810   -1.6220   -1.3720 hc        1 MOL     -0.060314
    157 H69        -6.9360   -2.1290   -3.0570 hc        1 MOL      0.056979
    158 H70        -7.1650   -0.5490   -2.4620 hc        1 MOL      0.056979
    159 N14        -4.5700   -1.2530    1.6340 n         1 MOL     -0.084038
    160 C53        -3.6920   -1.5870    2.8440 c3        1 MOL     -0.026704
    161 C54        -4.1460   -0.8310    4.1170 c         1 MOL      0.437285
    162 O24        -4.2240   -1.4050    5.2250 o         1 MOL     -0.571607
    163 C55        -2.2760   -1.1090    2.4900 c3        1 MOL      0.101645
    164 C56        -1.6410   -1.8250    1.3540 c3        1 MOL     -0.013253
    165 C57        -0.3890   -1.1910    0.7930 c         1 MOL      0.832506
    166 O25         0.2250   -1.6360   -0.2540 o         1 MOL     -0.738351
    167 O26         0.0900   -0.1550    1.2730 o         1 MOL     -0.738351
    168 H71        -4.2360   -0.5420    0.9980 hn        1 MOL     -0.020633
    169 H72        -3.7000   -2.6200    3.1670 h1        1 MOL      0.070284
    170 H73        -1.6400   -1.1280    3.3760 hc        1 MOL      0.001418
    171 H74        -2.3630   -0.0750    2.1650 hc        1 MOL      0.001418
    172 H75        -2.3410   -1.9470    0.5280 hc        1 MOL     -0.020384
    173 H76        -1.4810   -2.8380    1.7130 hc        1 MOL     -0.020384
    174 N15        -4.4600    0.4430    3.9940 n         1 MOL      0.017467
    175 C58        -4.7870    1.3450    5.1640 c3        1 MOL     -0.252071
    176 H77        -4.2390    1.0090    6.0450 h1        1 MOL      0.093023
    177 H78        -4.5000    2.3690    4.9260 h1        1 MOL      0.093023
    178 H79        -5.8580    1.3060    5.3660 h1        1 MOL      0.093023
    179 H80        -4.0530    0.8890    3.1880 hn        1 MOL     -0.014284
    180 Ca1         2.6100   -0.2600    0.2480 Ca        1 MOL      1.757051
    181 O27         2.1020   -0.9270    2.8920 oh        1 MOL     -0.966140
    182 O28         1.4200    1.2510   -1.8820 oh        1 MOL     -0.966140
    183 H81         2.6110   -0.3340    3.4490 ho        1 MOL      0.443619
    184 H82         1.5410    0.6400   -2.6080 ho        1 MOL      0.443619
    185 H83         1.5000   -1.3640    3.4950 ho        1 MOL      0.443619
    186 H84         2.0430    1.9530   -2.0430 ho        1 MOL      0.443619
    187 O29         5.2170   -0.5630    1.5080 oh        1 MOL     -0.966140
    188 H85         5.9690   -0.3420    2.0470 ho        1 MOL      0.443619
    189 H86         5.1470   -1.5080    1.5650 ho        1 MOL      0.443619
@<TRIPOS>BOND
     1    1    2 1   
     2    1    4 1   
     3    1    5 1   
     4    1    6 1   
     5    2    3 2   
     6    2    7 1   
     7    7    8 1   
     8    7   15 1   
     9    8    9 1   
    10    8   11 1   
    11    8   16 1   
    12    9   10 2   
    13    9   19 1   
    14   11   12 1   
    15   11   17 1   
    16   11   18 1   
    17   12   13 1   
    18   12   14 1   
    19   19   20 1   
    20   19   27 1   
    21   20   21 1   
    22   20   23 1   
    23   20   28 1   
    24   21   22 2   
    25   21   38 1   
    26   23   24 1   
    27   23   25 1   
    28   23   29 1   
    29   24   26 1   
    30   24   30 1   
    31   24   31 1   
    32   25   32 1   
    33   25   33 1   
    34   25   34 1   
    35   26   35 1   
    36   26   36 1   
    37   26   37 1   
    38   38   39 1   
    39   38   46 1   
    40   39   40 1   
    41   39   42 1   
    42   39   47 1   
    43   40   41 2   
    44   40   50 1   
    45   42   43 1   
    46   42   48 1   
    47   42   49 1   
    48   43   44 1   
    49   43   45 1   
    50   50   51 1   
    51   50   54 1   
    52   51   52 1   
    53   51   55 1   
    54   51   56 1   
    55   52   53 2   
    56   52   57 1   
    57   57   58 1   
    58   57   65 1   
    59   58   59 1   
    60   58   61 1   
    61   58   66 1   
    62   59   60 2   
    63   59   69 1   
    64   61   62 1   
    65   61   67 1   
    66   61   68 1   
    67   62   63 1   
    68   62   64 1   
    69   69   70 1   
    70   69   73 1   
    71   70   71 1   
    72   70   74 1   
    73   70   75 1   
    74   71   72 2   
    75   71   76 1   
    76   76   77 1   
    77   76   85 1   
    78   77   78 1   
    79   77   80 1   
    80   77   86 1   
    81   78   79 2   
    82   78   93 1   
    83   80   81 1   
    84   80   87 1   
    85   80   88 1   
    86   81   82 1   
    87   81   89 1   
    88   81   90 1   
    89   82   83 1   
    90   82   84 2   
    91   83   91 1   
    92   83   92 1   
    93   93   94 1   
    94   93  100 1   
    95   94   95 1   
    96   94   97 1   
    97   94  101 1   
    98   95   96 2   
    99   95  109 1   
   100   97   98 1   
   101   97   99 1   
   102   97  102 1   
   103   98  103 1   
   104   98  104 1   
   105   98  105 1   
   106   99  106 1   
   107   99  107 1   
   108   99  108 1   
   109  109  110 1   
   110  109  117 1   
   111  110  111 1   
   112  110  113 1   
   113  110  118 1   
   114  111  112 2   
   115  111  123 1   
   116  113  114 1   
   117  113  119 1   
   118  113  120 1   
   119  114  115 1   
   120  114  116 2   
   121  115  121 1   
   122  115  122 1   
   123  123  124 1   
   124  123  135 1   
   125  124  125 1   
   126  124  127 1   
   127  124  136 1   
   128  125  126 2   
   129  125  144 1   
   130  127  128 1   
   131  127  137 1   
   132  127  138 1   
   133  128  129 ar  
   134  128  130 ar  
   135  129  131 ar  
   136  129  139 1   
   137  130  132 ar  
   138  130  140 1   
   139  131  133 ar  
   140  131  141 1   
   141  132  133 ar  
   142  132  142 1   
   143  133  134 1   
   144  134  143 1   
   145  144  145 1   
   146  144  153 1   
   147  145  146 1   
   148  145  148 1   
   149  145  154 1   
   150  146  147 2   
   151  146  159 1   
   152  148  149 1   
   153  148  155 1   
   154  148  156 1   
   155  149  150 1   
   156  149  157 1   
   157  149  158 1   
   158  150  151 1   
   159  150  152 1   
   160  159  160 1   
   161  159  168 1   
   162  160  161 1   
   163  160  163 1   
   164  160  169 1   
   165  161  162 2   
   166  161  174 1   
   167  163  164 1   
   168  163  170 1   
   169  163  171 1   
   170  164  165 1   
   171  164  172 1   
   172  164  173 1   
   173  165  166 1   
   174  165  167 1   
   175  174  175 1   
   176  174  179 1   
   177  175  176 1   
   178  175  177 1   
   179  175  178 1   
   180  181  183 1   
   181  181  185 1   
   182  182  184 1   
   183  182  186 1   
   184  187  188 1   
   185  187  189 1   
@<TRIPOS>SUBSTRUCTURE
     1 MOL         1 TEMP              0 ****  ****    0 ROOT
