@<TRIPOS>MOLECULE
MOL
  172   171     1     0     0
SMALL
resp


@<TRIPOS>ATOM
      1 C1         -0.4110   -3.2490    5.7760 c3        1 MOL     -0.479866
      2 C2          0.1680   -3.2820    4.3570 c         1 MOL      0.748760
      3 O1         -0.5860   -3.4940    3.4210 o         1 MOL     -0.567035
      4 H1         -1.0260   -2.3580    5.8970 hc        1 MOL      0.116355
      5 H2         -1.0220   -4.1360    5.9410 hc        1 MOL      0.116355
      6 H3          0.4030   -3.2290    6.5010 hc        1 MOL      0.116355
      7 N1          1.4770   -3.0900    4.1980 n         1 MOL     -0.626979
      8 C3          2.2710   -3.0190    2.9440 c3        1 MOL     -0.011538
      9 C4          2.3020   -4.3860    2.2740 c         1 MOL      0.522277
     10 O2          2.6880   -5.4580    2.8250 o         1 MOL     -0.545145
     11 C5          3.7290   -2.5780    3.1050 c3        1 MOL     -0.097568
     12 C6          4.2890   -2.4390    1.7420 c         1 MOL      0.687107
     13 O3          3.9530   -1.4150    1.0550 o         1 MOL     -0.684082
     14 O4          5.0210   -3.4260    1.3800 o         1 MOL     -0.684082
     15 H4          2.0540   -3.2240    5.0140 hn        1 MOL      0.324622
     16 H5          1.8120   -2.2540    2.3210 h1        1 MOL      0.191004
     17 H6          4.3280   -3.2310    3.7500 hc        1 MOL      0.021587
     18 H7          3.8310   -1.6210    3.6140 hc        1 MOL      0.021587
     19 N2          2.0480   -4.2340    0.9100 n         1 MOL     -0.295860
     20 C7          2.1810   -5.3760   -0.0310 c3        1 MOL      0.168219
     21 C8          2.8740   -5.0440   -1.3780 c         1 MOL      0.617343
     22 O5          3.0110   -5.8900   -2.2420 o         1 MOL     -0.594696
     23 C9          0.8250   -5.9590   -0.2210 c3        1 MOL     -0.297955
     24 H8          1.7210   -3.3170    0.6570 hn        1 MOL      0.169526
     25 H9          2.8030   -6.1440    0.4320 h1        1 MOL      0.045418
     26 H10         0.8750   -6.8450   -0.8610 hc        1 MOL      0.069311
     27 H11         0.3010   -6.0400    0.7310 hc        1 MOL      0.069311
     28 H12         0.2800   -5.3010   -0.8990 hc        1 MOL      0.069311
     29 N3          3.6430   -3.9250   -1.4940 n         1 MOL     -0.425593
     30 C10         4.3790   -3.6190   -2.6770 c3        1 MOL      0.155406
     31 C11         5.7950   -3.0560   -2.3880 c         1 MOL      0.372675
     32 O6          6.5800   -2.9400   -3.3070 o         1 MOL     -0.554266
     33 C12         3.5720   -2.7020   -3.6140 c3        1 MOL     -0.231692
     34 C13         3.0580   -1.5100   -2.8730 c         1 MOL      0.716799
     35 O7          3.6990   -0.9820   -1.9540 o         1 MOL     -0.710908
     36 O8          1.8110   -1.3060   -2.9340 o         1 MOL     -0.710908
     37 H13         3.5990   -3.2100   -0.7720 hn        1 MOL      0.176540
     38 H14         4.6370   -4.4880   -3.2830 h1        1 MOL      0.069690
     39 H15         2.7060   -3.2380   -4.0080 hc        1 MOL      0.054069
     40 H16         4.2260   -2.3710   -4.4230 hc        1 MOL      0.054069
     41 N4          6.1530   -2.5800   -1.1840 n         1 MOL     -0.135824
     42 C14         7.3920   -1.8510   -0.8390 c3        1 MOL     -0.285622
     43 C15         7.5430   -0.3640   -1.0740 c         1 MOL      0.610129
     44 O9          8.5720    0.2500   -0.7320 o         1 MOL     -0.631607
     45 H17         5.5070   -2.6850   -0.4130 hn        1 MOL      0.160475
     46 H18         8.2440   -2.3290   -1.3200 h1        1 MOL      0.131275
     47 H19         7.5280   -2.0040    0.2320 h1        1 MOL      0.131275
     48 N5          6.4920    0.3050   -1.5440 n         1 MOL     -0.377682
     49 C16         6.6540    1.6870   -2.1170 c3        1 MOL      0.129645
     50 C17         6.6980    2.8180   -1.1370 c         1 MOL      0.379587
     51 O10         6.9860    3.9500   -1.5520 o         1 MOL     -0.517911
     52 C18         5.6110    1.9450   -3.1550 c3        1 MOL     -0.148269
     53 C19         4.1510    1.8410   -2.6320 c         1 MOL      0.684821
     54 N6          3.1670    1.7400   -3.4830 n         1 MOL     -0.600600
     55 O11         3.8080    1.7260   -1.4150 o         1 MOL     -0.785821
     56 H20         5.6710   -0.2250   -1.7750 hn        1 MOL      0.245734
     57 H21         7.6050    1.6990   -2.6450 h1        1 MOL      0.073594
     58 H22         5.7310    1.2160   -3.9530 hc        1 MOL      0.050504
     59 H23         5.7860    2.9220   -3.6110 hc        1 MOL      0.050504
     60 H24         3.3620    1.8770   -4.4660 hn        1 MOL      0.308990
     61 H25         2.2060    1.7090   -3.1740 hn        1 MOL      0.308990
     62 N7          6.3810    2.5370    0.1550 n         1 MOL     -0.044858
     63 C20         6.3670    3.4600    1.2460 c3        1 MOL     -0.356215
     64 C21         5.1100    4.2680    1.5590 c         1 MOL      0.553596
     65 O12         5.1980    5.2800    2.3470 o         1 MOL     -0.596435
     66 H26         6.0680    1.6050    0.3720 hn        1 MOL      0.173175
     67 H27         7.1750    4.1460    1.0020 h1        1 MOL      0.136471
     68 H28         6.5240    2.8870    2.1650 h1        1 MOL      0.136471
     69 N8          4.0030    3.9590    0.9270 n         1 MOL     -0.153886
     70 C22         2.6860    4.5870    1.0600 c3        1 MOL     -0.263459
     71 C23         1.5330    3.5930    1.1210 c         1 MOL      0.653018
     72 O13         1.5650    2.4760    0.5910 o         1 MOL     -0.550752
     73 C24         2.4270    5.5570   -0.1650 c3        1 MOL      0.488944
     74 C25         3.1480    6.9690   -0.2360 c3        1 MOL     -0.550060
     75 O14         2.7320    4.8600   -1.3780 oh        1 MOL     -0.597823
     76 H29         4.1350    3.1510    0.3300 hn        1 MOL      0.183220
     77 H30         2.5580    5.1910    1.9580 h1        1 MOL      0.099519
     78 H31         1.3430    5.6980   -0.0940 h1        1 MOL     -0.029465
     79 H32         2.3780    3.9720   -1.3590 ho        1 MOL      0.363690
     80 H33         2.7310    7.4810   -1.1120 hc        1 MOL      0.148937
     81 H34         3.1280    7.6040    0.6430 hc        1 MOL      0.148937
     82 H35         4.2100    6.7880   -0.4350 hc        1 MOL      0.148937
     83 N9          0.4540    3.9540    1.8970 n         1 MOL     -0.608166
     84 C26        -0.7640    3.1250    1.9580 c3        1 MOL     -0.030228
     85 C27        -1.5500    3.2570    0.6770 c         1 MOL      0.635311
     86 O15        -1.7650    4.3760    0.2340 o         1 MOL     -0.609965
     87 C28        -1.6040    3.2930    3.2680 c3        1 MOL      0.283050
     88 C29        -0.7550    3.0670    4.5040 c3        1 MOL     -0.023799
     89 C30        -2.9120    2.4740    3.3110 c3        1 MOL     -0.162986
     90 C31        -1.3820    3.3460    5.8430 c3        1 MOL     -0.230693
     91 H36         0.5760    4.8070    2.4270 hn        1 MOL      0.331300
     92 H37        -0.4400    2.0770    1.9340 h1        1 MOL      0.022340
     93 H38        -1.9680    4.3180    3.1690 hc        1 MOL     -0.063122
     94 H39         0.0990    3.7300    4.3590 hc        1 MOL      0.017246
     95 H40        -0.4900    2.0160    4.5500 hc        1 MOL      0.017246
     96 H41        -2.6160    1.4310    3.2900 hc        1 MOL      0.023914
     97 H42        -3.5520    2.6620    4.1720 hc        1 MOL      0.023914
     98 H43        -3.4920    2.7250    2.4230 hc        1 MOL      0.023914
     99 H44        -0.5870    3.1720    6.5740 hc        1 MOL      0.054878
    100 H45        -1.7890    4.3580    5.8250 hc        1 MOL      0.054878
    101 H46        -2.2070    2.6910    6.1240 hc        1 MOL      0.054878
    102 N10        -1.9080    2.1320    0.0820 n         1 MOL     -0.184116
    103 C32        -2.7010    2.0840   -1.1310 c3        1 MOL     -0.001825
    104 C33        -4.1140    1.6170   -0.8680 c         1 MOL      0.388000
    105 O16        -4.3820    1.1340    0.1790 o         1 MOL     -0.295092
    106 C34        -1.9960    1.0430   -2.0640 c3        1 MOL     -0.251674
    107 C35        -0.5970    1.4580   -2.5880 c         1 MOL      0.707366
    108 O17         0.4040    1.2060   -1.8700 o         1 MOL     -0.663512
    109 O18        -0.4690    1.8300   -3.7660 o         1 MOL     -0.663512
    110 H47        -1.4990    1.2430    0.3610 hn        1 MOL      0.077650
    111 H48        -2.7840    3.0260   -1.6700 h1        1 MOL      0.072417
    112 H49        -2.6480    0.9690   -2.9340 hc        1 MOL      0.073325
    113 H50        -1.9820    0.0600   -1.5840 hc        1 MOL      0.073325
    114 N11        -5.0430    1.6390   -1.8750 n         1 MOL     -0.568955
    115 C36        -6.4700    1.3070   -1.5780 c3        1 MOL      0.218786
    116 C37        -6.7090   -0.1270   -1.1150 c         1 MOL      0.433606
    117 O19        -7.2420   -0.2620    0.0010 o         1 MOL     -0.555177
    118 C38        -7.3230    1.5880   -2.7310 c3        1 MOL     -0.180008
    119 C39        -8.7440    1.3160   -2.5180 ca        1 MOL      0.158145
    120 C40        -9.5030    2.1360   -1.6640 ca        1 MOL     -0.205686
    121 C41        -9.3320    0.2200   -3.1360 ca        1 MOL     -0.205686
    122 C42       -10.9340    1.9180   -1.5770 ca        1 MOL     -0.093129
    123 C43       -10.7250    0.0020   -3.0170 ca        1 MOL     -0.093129
    124 C44       -11.5170    0.8910   -2.2770 ca        1 MOL     -0.138120
    125 H51        -4.8350    1.9260   -2.8230 hn        1 MOL      0.332536
    126 H52        -6.9140    1.9120   -0.7870 h1        1 MOL      0.077356
    127 H53        -6.9770    1.0590   -3.6210 hc        1 MOL      0.046284
    128 H54        -7.3210    2.6550   -2.9510 hc        1 MOL      0.046284
    129 H55        -9.0010    2.9420   -1.1640 ha        1 MOL      0.126249
    130 H56        -8.7390   -0.5420   -3.5950 ha        1 MOL      0.126249
    131 H57       -11.5580    2.5770   -0.9900 ha        1 MOL      0.107675
    132 H58       -11.2240   -0.8890   -3.3530 ha        1 MOL      0.107675
    133 H59       -12.5890    0.8230   -2.1310 ha        1 MOL      0.106240
    134 N12        -6.1720   -1.1930   -1.6970 n         1 MOL     -0.056429
    135 C45        -6.2050   -2.5330   -1.1210 c3        1 MOL     -0.073934
    136 C46        -5.4980   -2.6760    0.2520 c         1 MOL      0.378475
    137 O20        -5.8030   -3.6100    0.9520 o         1 MOL     -0.521215
    138 C47        -5.6550   -3.5160   -2.2090 c3        1 MOL     -0.131109
    139 C48        -4.7780   -2.6360   -3.1030 c3        1 MOL     -0.045544
    140 C49        -5.4960   -1.3190   -2.9840 c3        1 MOL      0.094522
    141 H60        -7.2700   -2.7140   -1.0760 h1        1 MOL      0.086484
    142 H61        -5.1610   -4.3940   -1.8130 hc        1 MOL      0.070603
    143 H62        -6.4620   -3.8930   -2.8250 hc        1 MOL      0.070603
    144 H63        -3.7480   -2.5200   -2.7520 hc        1 MOL      0.045548
    145 H64        -4.7450   -2.9460   -4.1460 hc        1 MOL      0.045548
    146 H65        -4.8010   -0.5190   -3.2180 h1        1 MOL     -0.019229
    147 H66        -6.2350   -1.2780   -3.7810 h1        1 MOL     -0.019229
    148 N13        -4.5840   -1.8210    0.6870 n         1 MOL     -0.126561
    149 C50        -3.9800   -1.8120    1.9970 c3        1 MOL     -0.058308
    150 C51        -4.8300   -0.9590    2.9730 c         1 MOL      0.412259
    151 O21        -4.8030   -1.2620    4.1860 o         1 MOL     -0.576420
    152 C52        -2.5770   -1.2370    2.0080 c3        1 MOL      0.012212
    153 C53        -1.7540   -1.8380    0.8350 c3        1 MOL      0.119362
    154 C54        -0.4020   -1.1730    0.7240 c         1 MOL      0.517153
    155 O22         0.5540   -1.8610    0.2880 o         1 MOL     -0.674315
    156 O23        -0.2870    0.0460    1.0200 o         1 MOL     -0.674315
    157 H67        -4.3290   -1.0810    0.0420 hn        1 MOL      0.152414
    158 H68        -3.9650   -2.8240    2.4130 h1        1 MOL      0.109356
    159 H69        -2.0810   -1.6640    2.8850 hc        1 MOL      0.036608
    160 H70        -2.4800   -0.1500    1.9710 hc        1 MOL      0.036608
    161 H71        -2.2720   -1.6300   -0.0960 hc        1 MOL      0.001274
    162 H72        -1.7580   -2.9320    0.8270 hc        1 MOL      0.001274
    163 N14        -5.5930    0.0340    2.5080 n         1 MOL      0.021055
    164 C55        -6.6290    0.7030    3.3310 c3        1 MOL     -0.230487
    165 H73        -6.8490    1.6840    2.9100 h1        1 MOL      0.085052
    166 H74        -7.5360    0.0990    3.3350 h1        1 MOL      0.085052
    167 H75        -6.2640    0.8190    4.3520 h1        1 MOL      0.085052
    168 H76        -5.3820    0.3020    1.5560 hn        1 MOL      0.004238
    169 Ca1         2.1290    0.0470   -0.3780 Ca        1 MOL      1.771780
    170 O24         1.5830    0.5170    2.6870 oh        1 MOL     -0.858067
    171 H77         0.7390    0.3820    2.2720 ho        1 MOL      0.399752
    172 H78         1.3790    0.8440    3.5620 ho        1 MOL      0.399752
@<TRIPOS>BOND
     1    1    2 1   
     2    1    4 1   
     3    1    5 1   
     4    1    6 1   
     5    2    3 2   
     6    2    7 1   
     7    7    8 1   
     8    7   15 1   
     9    8    9 1   
    10    8   11 1   
    11    8   16 1   
    12    9   10 2   
    13    9   19 1   
    14   11   12 1   
    15   11   17 1   
    16   11   18 1   
    17   12   13 1   
    18   12   14 1   
    19   19   20 1   
    20   19   24 1   
    21   20   21 1   
    22   20   23 1   
    23   20   25 1   
    24   21   22 2   
    25   21   29 1   
    26   23   26 1   
    27   23   27 1   
    28   23   28 1   
    29   29   30 1   
    30   29   37 1   
    31   30   31 1   
    32   30   33 1   
    33   30   38 1   
    34   31   32 2   
    35   31   41 1   
    36   33   34 1   
    37   33   39 1   
    38   33   40 1   
    39   34   35 1   
    40   34   36 1   
    41   41   42 1   
    42   41   45 1   
    43   42   43 1   
    44   42   46 1   
    45   42   47 1   
    46   43   44 2   
    47   43   48 1   
    48   48   49 1   
    49   48   56 1   
    50   49   50 1   
    51   49   52 1   
    52   49   57 1   
    53   50   51 2   
    54   50   62 1   
    55   52   53 1   
    56   52   58 1   
    57   52   59 1   
    58   53   54 1   
    59   53   55 2   
    60   54   60 1   
    61   54   61 1   
    62   62   63 1   
    63   62   66 1   
    64   63   64 1   
    65   63   67 1   
    66   63   68 1   
    67   64   65 2   
    68   64   69 1   
    69   69   70 1   
    70   69   76 1   
    71   70   71 1   
    72   70   73 1   
    73   70   77 1   
    74   71   72 2   
    75   71   83 1   
    76   73   74 1   
    77   73   75 1   
    78   73   78 1   
    79   74   80 1   
    80   74   81 1   
    81   74   82 1   
    82   75   79 1   
    83   83   84 1   
    84   83   91 1   
    85   84   85 1   
    86   84   87 1   
    87   84   92 1   
    88   85   86 2   
    89   85  102 1   
    90   87   88 1   
    91   87   89 1   
    92   87   93 1   
    93   88   90 1   
    94   88   94 1   
    95   88   95 1   
    96   89   96 1   
    97   89   97 1   
    98   89   98 1   
    99   90   99 1   
   100   90  100 1   
   101   90  101 1   
   102  102  103 1   
   103  102  110 1   
   104  103  104 1   
   105  103  106 1   
   106  103  111 1   
   107  104  105 2   
   108  104  114 1   
   109  106  107 1   
   110  106  112 1   
   111  106  113 1   
   112  107  108 1   
   113  107  109 1   
   114  114  115 1   
   115  114  125 1   
   116  115  116 1   
   117  115  118 1   
   118  115  126 1   
   119  116  117 2   
   120  116  134 1   
   121  118  119 1   
   122  118  127 1   
   123  118  128 1   
   124  119  120 ar  
   125  119  121 ar  
   126  120  122 ar  
   127  120  129 1   
   128  121  123 ar  
   129  121  130 1   
   130  122  124 ar  
   131  122  131 1   
   132  123  124 ar  
   133  123  132 1   
   134  124  133 1   
   135  134  135 1   
   136  134  140 1   
   137  135  136 1   
   138  135  138 1   
   139  135  141 1   
   140  136  137 2   
   141  136  148 1   
   142  138  139 1   
   143  138  142 1   
   144  138  143 1   
   145  139  140 1   
   146  139  144 1   
   147  139  145 1   
   148  140  146 1   
   149  140  147 1   
   150  148  149 1   
   151  148  157 1   
   152  149  150 1   
   153  149  152 1   
   154  149  158 1   
   155  150  151 2   
   156  150  163 1   
   157  152  153 1   
   158  152  159 1   
   159  152  160 1   
   160  153  154 1   
   161  153  161 1   
   162  153  162 1   
   163  154  155 1   
   164  154  156 1   
   165  163  164 1   
   166  163  168 1   
   167  164  165 1   
   168  164  166 1   
   169  164  167 1   
   170  170  171 1   
   171  170  172 1   
@<TRIPOS>SUBSTRUCTURE
     1 MOL         1 TEMP              0 ****  ****    0 ROOT
