@<TRIPOS>MOLECULE
MOL
  179   176     1     0     0
SMALL
resp


@<TRIPOS>ATOM
      1 C1          1.8960    3.1620    4.7170 c3        1 MOL     -0.453037
      2 C2          1.1650    3.1340    3.3760 c         1 MOL      0.689912
      3 O1          1.7560    3.4590    2.3550 o         1 MOL     -0.591914
      4 H1          2.3440    4.1450    4.8650 hc        1 MOL      0.119484
      5 H2          1.1880    2.9610    5.5210 hc        1 MOL      0.119484
      6 H3          2.6770    2.4030    4.7210 hc        1 MOL      0.119484
      7 N1         -0.0920    2.7540    3.4480 n         1 MOL     -0.547952
      8 C3         -1.0290    2.5190    2.3380 c3        1 MOL      0.139728
      9 C4         -1.6590    3.8110    1.9140 c         1 MOL      0.498402
     10 O2         -2.8790    4.0170    2.0450 o         1 MOL     -0.435598
     11 C5         -2.0620    1.4010    2.8080 c3        1 MOL     -0.146345
     12 C6         -2.9860    1.0300    1.6700 c         1 MOL      0.537792
     13 O3         -4.1960    0.7910    1.9320 o         1 MOL     -0.629685
     14 O4         -2.5070    0.9430    0.5150 o         1 MOL     -0.629685
     15 H4         -0.3940    2.2560    4.2760 hn        1 MOL      0.300806
     16 H5         -0.4620    2.0970    1.5080 h1        1 MOL      0.089642
     17 H6         -2.6320    1.6410    3.7050 hc        1 MOL      0.060529
     18 H7         -1.4220    0.5310    2.9380 hc        1 MOL      0.060529
     19 N2         -0.7230    4.7260    1.4350 n         1 MOL     -0.480396
     20 C7         -1.1650    6.0920    0.9580 c3        1 MOL      0.002235
     21 C8         -2.2100    6.1070   -0.1530 c         1 MOL      0.274690
     22 O5         -3.0360    7.0150   -0.2020 o         1 MOL     -0.490534
     23 C9          0.0110    6.8480    0.4670 c3        1 MOL      0.093744
     24 C10         1.0950    7.1280    1.5120 c3        1 MOL     -0.006261
     25 C11         2.0290    8.2320    0.9860 c3        1 MOL     -0.199306
     26 C12         2.7300    8.0060   -0.3290 c3        1 MOL      0.095189
     27 N3          3.7730    6.9440   -0.2210 n4        1 MOL     -0.479365
     28 H8          0.2480    4.4680    1.3340 hn        1 MOL      0.287283
     29 H9         -1.6360    6.7520    1.6900 h1        1 MOL      0.108134
     30 H10        -0.4220    7.8140    0.2120 hc        1 MOL      0.009601
     31 H11         0.4930    6.4850   -0.4370 hc        1 MOL      0.009601
     32 H12         1.6380    6.2330    1.8060 hc        1 MOL      0.024470
     33 H13         0.5660    7.4530    2.4120 hc        1 MOL      0.024470
     34 H14         2.8220    8.3950    1.7100 hc        1 MOL      0.090855
     35 H15         1.4660    9.1460    0.8110 hc        1 MOL      0.090855
     36 H16         3.1320    8.9750   -0.6090 hx        1 MOL      0.076110
     37 H17         1.9430    7.7970   -1.0510 hx        1 MOL      0.076110
     38 H18         3.3680    6.0190   -0.2980 hn        1 MOL      0.366532
     39 H19         4.3920    7.0080   -1.0220 hn        1 MOL      0.366532
     40 H20         4.1610    6.8590    0.7070 hn        1 MOL      0.366532
     41 N4         -2.1140    5.1520   -1.0540 n         1 MOL     -0.218305
     42 C13        -3.1570    5.0700   -2.1310 c3        1 MOL     -0.002125
     43 C14        -4.5210    4.5210   -1.6600 c         1 MOL      0.442929
     44 O6         -5.5080    4.8430   -2.3000 o         1 MOL     -0.532359
     45 C15        -2.6770    4.1490   -3.2800 c3        1 MOL     -0.274912
     46 C16        -2.1830    2.7700   -2.8810 c         1 MOL      0.739904
     47 O7         -1.0000    2.5290   -2.6560 o         1 MOL     -0.742059
     48 O8         -3.0340    1.8820   -2.5580 o         1 MOL     -0.742059
     49 H21        -1.4160    4.4370   -0.9040 hn        1 MOL      0.230172
     50 H22        -3.3840    6.0370   -2.5840 h1        1 MOL      0.116589
     51 H23        -1.8250    4.6720   -3.7170 hc        1 MOL      0.071602
     52 H24        -3.4480    4.0060   -4.0410 hc        1 MOL      0.071602
     53 N5         -4.6770    3.8250   -0.5160 n         1 MOL      0.035780
     54 C17        -5.8310    3.2500    0.1130 c3        1 MOL     -0.404711
     55 C18        -6.4880    2.1110   -0.6190 c         1 MOL      0.812206
     56 O9         -7.5060    2.3160   -1.2090 o         1 MOL     -0.580012
     57 H25        -3.7800    3.5390   -0.1420 hn        1 MOL      0.102755
     58 H26        -6.5510    4.0550    0.2970 h1        1 MOL      0.127741
     59 H27        -5.5270    2.9230    1.1030 h1        1 MOL      0.127741
     60 N6         -5.8590    0.9780   -0.4380 n         1 MOL     -0.437347
     61 C19        -6.3700   -0.3090   -0.9900 c3        1 MOL      0.079764
     62 C20        -6.5130   -1.5290   -0.0710 c         1 MOL      0.364466
     63 O10        -7.1160   -2.5460   -0.4410 o         1 MOL     -0.461450
     64 C21        -5.6410   -0.8270   -2.3240 c3        1 MOL     -0.338278
     65 C22        -4.3240   -1.5140   -2.1650 c         1 MOL      0.599323
     66 N7         -3.8970   -2.1370   -3.2250 n         1 MOL     -0.733989
     67 O11        -3.5770   -1.4730   -1.2010 o         1 MOL     -0.359195
     68 H28        -4.9900    0.8750    0.0610 hn        1 MOL      0.075706
     69 H29        -7.4330   -0.1050   -1.1270 h1        1 MOL      0.070927
     70 H30        -5.5280    0.0390   -2.9820 hc        1 MOL      0.123896
     71 H31        -6.3190   -1.5910   -2.7090 hc        1 MOL      0.123896
     72 H32        -4.5380   -2.2250   -3.9950 hn        1 MOL      0.343631
     73 H33        -2.9860   -2.5780   -3.2310 hn        1 MOL      0.343631
     74 N8         -5.9300   -1.3270    1.1240 n         1 MOL     -0.229380
     75 C23        -5.8690   -2.3950    2.1630 c3        1 MOL     -0.308394
     76 C24        -4.5960   -3.2270    2.1810 c         1 MOL      0.699756
     77 O12        -4.4430   -4.1540    2.9430 o         1 MOL     -0.581260
     78 H34        -5.4220   -0.4860    1.3550 hn        1 MOL      0.297890
     79 H35        -6.6200   -3.1660    1.9970 h1        1 MOL      0.141521
     80 H36        -6.1140   -1.8990    3.1030 h1        1 MOL      0.141521
     81 N9         -3.5580   -2.8520    1.3640 n         1 MOL     -0.633621
     82 C25        -2.3300   -3.6410    1.1670 c3        1 MOL      0.392348
     83 C26        -1.0360   -2.9050    1.0750 c         1 MOL      0.372100
     84 O13        -0.9290   -1.7590    0.5500 o         1 MOL     -0.560608
     85 C27        -2.3960   -4.5970   -0.0180 c3        1 MOL     -0.188746
     86 C28        -3.7060   -5.4300   -0.1120 ca        1 MOL      0.033479
     87 C29        -4.8560   -4.9560   -0.6900 ca        1 MOL     -0.143194
     88 C30        -3.6520   -6.6770    0.5260 ca        1 MOL     -0.143194
     89 C31        -6.0290   -5.7170   -0.5950 ca        1 MOL     -0.287733
     90 C32        -4.7730   -7.4670    0.5730 ca        1 MOL     -0.287733
     91 C33        -5.9910   -6.9550    0.0850 ca        1 MOL      0.419805
     92 O14        -7.0800   -7.7400    0.1450 oh        1 MOL     -0.510373
     93 H37        -3.6810   -2.0820    0.7250 hn        1 MOL      0.397246
     94 H38        -2.1680   -4.1770    2.0980 h1        1 MOL      0.008991
     95 H39        -1.4990   -5.2200    0.0220 hc        1 MOL      0.028598
     96 H40        -2.4230   -4.0700   -0.9690 hc        1 MOL      0.028598
     97 H41        -4.8310   -4.0200   -1.2240 ha        1 MOL      0.121552
     98 H42        -2.7440   -6.9550    1.0350 ha        1 MOL      0.121552
     99 H43        -6.9880   -5.3680   -0.9460 ha        1 MOL      0.144316
    100 H44        -4.7740   -8.4040    1.1080 ha        1 MOL      0.144316
    101 H45        -6.9830   -8.4700    0.7470 ho        1 MOL      0.362911
    102 N10         0.1100   -3.4740    1.5030 n         1 MOL     -0.445531
    103 C34         1.4770   -2.9620    1.5010 c3        1 MOL      0.038616
    104 C35         2.4890   -3.9910    0.9350 c         1 MOL      0.530907
    105 O15         2.7840   -4.9830    1.5240 o         1 MOL     -0.485281
    106 C36         1.9290   -2.5000    2.9570 c3        1 MOL      0.125304
    107 C37         1.0320   -1.6050    3.8370 c3        1 MOL      0.074340
    108 C38         3.3890   -1.9360    2.8540 c3        1 MOL     -0.080267
    109 C39         1.5150   -1.6040    5.3620 c3        1 MOL     -0.197441
    110 H46         0.0360   -4.3320    2.0260 hn        1 MOL      0.284504
    111 H47         1.6190   -2.0660    0.8910 h1        1 MOL      0.043525
    112 H48         1.9280   -3.4350    3.5210 hc        1 MOL     -0.020521
    113 H49        -0.0190   -1.9080    3.7430 hc        1 MOL     -0.001879
    114 H50         1.0280   -0.5980    3.4110 hc        1 MOL     -0.001879
    115 H51         3.5330   -1.1830    2.0830 hc        1 MOL      0.005126
    116 H52         3.7110   -1.6090    3.8430 hc        1 MOL      0.005126
    117 H53         4.0850   -2.7420    2.6280 hc        1 MOL      0.005126
    118 H54         0.7530   -0.9820    5.8470 hc        1 MOL      0.050225
    119 H55         1.5240   -2.5790    5.8500 hc        1 MOL      0.050225
    120 H56         2.4830   -1.1100    5.4520 hc        1 MOL      0.050225
    121 N11         3.0000   -3.6030   -0.2820 n         1 MOL     -0.506693
    122 C40         4.1810   -4.0720   -0.9150 c3        1 MOL      0.168103
    123 C41         5.4750   -3.3800   -0.3680 c         1 MOL      0.476419
    124 O16         5.4610   -2.4460    0.4640 o         1 MOL     -0.314823
    125 C42         4.1520   -4.0070   -2.4420 c3        1 MOL     -0.002797
    126 O17         4.7940   -2.8700   -2.9850 oh        1 MOL     -0.533927
    127 H57         2.4540   -2.9220   -0.7770 hn        1 MOL      0.283777
    128 H58         4.3190   -5.1130   -0.6360 h1        1 MOL      0.046854
    129 H59         3.1250   -4.0600   -2.7910 h1        1 MOL      0.060325
    130 H60         4.6540   -4.8720   -2.8860 h1        1 MOL      0.060325
    131 H61         4.7900   -2.9300   -3.9450 ho        1 MOL      0.404440
    132 N12         6.6550   -3.9630   -0.6540 n         1 MOL     -0.599581
    133 C43         7.9270   -3.3390   -0.3080 c3        1 MOL      0.254284
    134 C44         8.2080   -1.9490   -0.9390 c         1 MOL      0.436495
    135 O18         8.8280   -1.1680   -0.2290 o         1 MOL     -0.542746
    136 C45         9.0850   -4.2860   -0.6030 c3        1 MOL     -0.234461
    137 H62         6.6430   -4.7510   -1.2820 hn        1 MOL      0.318005
    138 H63         8.0050   -3.2420    0.7770 h1        1 MOL      0.064096
    139 H64         9.3530   -4.3330   -1.6610 hc        1 MOL      0.070153
    140 H65         9.9280   -3.9080   -0.0250 hc        1 MOL      0.070153
    141 H66         8.9380   -5.3000   -0.2410 hc        1 MOL      0.070153
    142 N13         7.7120   -1.6260   -2.0790 n         1 MOL     -0.315946
    143 C46         7.8240   -0.2630   -2.6450 c3        1 MOL      0.048402
    144 C47         7.1050    0.7990   -1.8230 c         1 MOL      0.393667
    145 O19         7.3380    1.9910   -1.9040 o         1 MOL     -0.546927
    146 C48         7.1440   -0.3360   -4.0180 c3        1 MOL     -0.253237
    147 H67         7.1010   -2.2400   -2.5990 hn        1 MOL      0.215810
    148 H68         8.8730   -0.0450   -2.8430 h1        1 MOL      0.109706
    149 H69         7.3570   -1.2010   -4.6540 hc        1 MOL      0.078837
    150 H70         6.1000   -0.4630   -3.7390 hc        1 MOL      0.078837
    151 H71         7.2430    0.6130   -4.5390 hc        1 MOL      0.078837
    152 N14         6.1830    0.3900   -0.9830 n         1 MOL     -0.016378
    153 C49         5.2320    1.1830   -0.1260 c3        1 MOL     -0.002225
    154 C50         5.8030    1.1300    1.2610 c         1 MOL      0.435309
    155 O20         5.8730    2.2200    1.8580 o         1 MOL     -0.561653
    156 C51         3.8360    0.6370   -0.2440 c3        1 MOL      0.127939
    157 C52         3.1140    0.9730   -1.5980 c3        1 MOL     -0.151671
    158 C53         1.6460    0.5000   -1.4220 c         1 MOL      0.764499
    159 O21         1.2540   -0.3840   -2.1880 o         1 MOL     -0.763482
    160 O22         0.9120    1.0210   -0.5420 o         1 MOL     -0.763482
    161 H72         6.0400   -0.6110   -1.0040 hn        1 MOL     -0.025236
    162 H73         5.2450    2.2040   -0.4960 h1        1 MOL      0.050483
    163 H74         3.3120    1.1020    0.5840 hc        1 MOL      0.017263
    164 H75         3.7850   -0.4480   -0.1180 hc        1 MOL      0.017263
    165 H76         3.5590    0.5540   -2.5000 hc        1 MOL      0.009704
    166 H77         3.1040    2.0640   -1.6740 hc        1 MOL      0.009704
    167 N15         6.2720   -0.0140    1.7960 n         1 MOL     -0.120794
    168 C54         6.8570   -0.0350    3.1450 c3        1 MOL     -0.236192
    169 H78         7.2860    0.9420    3.3700 h1        1 MOL      0.101499
    170 H79         6.0820   -0.2670    3.8750 h1        1 MOL      0.101499
    171 H80         7.6390   -0.7930    3.1920 h1        1 MOL      0.101499
    172 H81         6.2210   -0.9010    1.3150 hn        1 MOL      0.122733
    173 Ca1        -1.3520   -0.0300   -1.5620 Ca        1 MOL      1.705071
    174 O23        -1.6240   -0.0870   -4.2730 oh        1 MOL     -0.847640
    175 H82        -2.1250    0.6010   -4.7040 ho        1 MOL      0.409138
    176 H83        -1.2750   -0.6060   -5.0000 ho        1 MOL      0.409138
    177 O24        -0.4180   -2.3290   -2.4400 oh        1 MOL     -0.847640
    178 H84         0.4400   -1.9330   -2.5570 ho        1 MOL      0.409138
    179 H85        -0.2620   -3.2670   -2.5770 ho        1 MOL      0.409138
@<TRIPOS>BOND
     1    1    2 1   
     2    1    4 1   
     3    1    5 1   
     4    1    6 1   
     5    2    3 2   
     6    2    7 1   
     7    7    8 1   
     8    7   15 1   
     9    8    9 1   
    10    8   11 1   
    11    8   16 1   
    12    9   10 2   
    13    9   19 1   
    14   11   12 1   
    15   11   17 1   
    16   11   18 1   
    17   12   13 1   
    18   12   14 1   
    19   19   20 1   
    20   19   28 1   
    21   20   21 1   
    22   20   23 1   
    23   20   29 1   
    24   21   22 2   
    25   21   41 1   
    26   23   24 1   
    27   23   30 1   
    28   23   31 1   
    29   24   25 1   
    30   24   32 1   
    31   24   33 1   
    32   25   26 1   
    33   25   34 1   
    34   25   35 1   
    35   26   27 1   
    36   26   36 1   
    37   26   37 1   
    38   27   38 1   
    39   27   39 1   
    40   27   40 1   
    41   41   42 1   
    42   41   49 1   
    43   42   43 1   
    44   42   45 1   
    45   42   50 1   
    46   43   44 2   
    47   43   53 1   
    48   45   46 1   
    49   45   51 1   
    50   45   52 1   
    51   46   47 1   
    52   46   48 1   
    53   53   54 1   
    54   53   57 1   
    55   54   55 1   
    56   54   58 1   
    57   54   59 1   
    58   55   56 2   
    59   55   60 1   
    60   60   61 1   
    61   60   68 1   
    62   61   62 1   
    63   61   64 1   
    64   61   69 1   
    65   62   63 2   
    66   62   74 1   
    67   64   65 1   
    68   64   70 1   
    69   64   71 1   
    70   65   66 1   
    71   65   67 2   
    72   66   72 1   
    73   66   73 1   
    74   74   75 1   
    75   74   78 1   
    76   75   76 1   
    77   75   79 1   
    78   75   80 1   
    79   76   77 2   
    80   76   81 1   
    81   81   82 1   
    82   81   93 1   
    83   82   83 1   
    84   82   85 1   
    85   82   94 1   
    86   83   84 2   
    87   83  102 1   
    88   85   86 1   
    89   85   95 1   
    90   85   96 1   
    91   86   87 ar  
    92   86   88 ar  
    93   87   89 ar  
    94   87   97 1   
    95   88   90 ar  
    96   88   98 1   
    97   89   91 ar  
    98   89   99 1   
    99   90   91 ar  
   100   90  100 1   
   101   91   92 1   
   102   92  101 1   
   103  102  103 1   
   104  102  110 1   
   105  103  104 1   
   106  103  106 1   
   107  103  111 1   
   108  104  105 2   
   109  104  121 1   
   110  106  107 1   
   111  106  108 1   
   112  106  112 1   
   113  107  109 1   
   114  107  113 1   
   115  107  114 1   
   116  108  115 1   
   117  108  116 1   
   118  108  117 1   
   119  109  118 1   
   120  109  119 1   
   121  109  120 1   
   122  121  122 1   
   123  121  127 1   
   124  122  123 1   
   125  122  125 1   
   126  122  128 1   
   127  123  124 2   
   128  123  132 1   
   129  125  126 1   
   130  125  129 1   
   131  125  130 1   
   132  126  131 1   
   133  132  133 1   
   134  132  137 1   
   135  133  134 1   
   136  133  136 1   
   137  133  138 1   
   138  134  135 2   
   139  134  142 1   
   140  136  139 1   
   141  136  140 1   
   142  136  141 1   
   143  142  143 1   
   144  142  147 1   
   145  143  144 1   
   146  143  146 1   
   147  143  148 1   
   148  144  145 2   
   149  144  152 1   
   150  146  149 1   
   151  146  150 1   
   152  146  151 1   
   153  152  153 1   
   154  152  161 1   
   155  153  154 1   
   156  153  156 1   
   157  153  162 1   
   158  154  155 2   
   159  154  167 1   
   160  156  157 1   
   161  156  163 1   
   162  156  164 1   
   163  157  158 1   
   164  157  165 1   
   165  157  166 1   
   166  158  159 1   
   167  158  160 1   
   168  167  168 1   
   169  167  172 1   
   170  168  169 1   
   171  168  170 1   
   172  168  171 1   
   173  174  175 1   
   174  174  176 1   
   175  177  178 1   
   176  177  179 1   
@<TRIPOS>SUBSTRUCTURE
     1 MOL         1 TEMP              0 ****  ****    0 ROOT
