@<TRIPOS>MOLECULE
MOL
  175   173     1     0     0
SMALL
resp


@<TRIPOS>ATOM
      1 C1          0.5360    3.6730    5.4890 c3        1 MOL     -0.369486
      2 C2         -0.0130    3.7910    4.0400 c         1 MOL      0.719512
      3 O1          0.7370    3.8160    3.0820 o         1 MOL     -0.548776
      4 H1          1.4000    4.3290    5.6040 hc        1 MOL      0.083109
      5 H2         -0.2390    3.9660    6.1970 hc        1 MOL      0.083109
      6 H3          0.8340    2.6430    5.6820 hc        1 MOL      0.083109
      7 N1         -1.3140    3.7470    3.9890 n         1 MOL     -0.591821
      8 C3         -2.1110    3.5340    2.7310 c3        1 MOL      0.133171
      9 C4         -2.3510    4.7510    1.8800 c         1 MOL      0.601428
     10 O2         -2.4610    5.9100    2.3920 o         1 MOL     -0.575541
     11 C5         -3.5050    2.9020    3.0710 c3        1 MOL     -0.408959
     12 C6         -4.3040    2.4460    1.8700 c         1 MOL      0.705607
     13 O3         -5.4920    2.7620    1.8450 o         1 MOL     -0.618168
     14 O4         -3.7450    1.7540    0.9450 o         1 MOL     -0.618168
     15 H4         -1.8930    3.7180    4.8220 hn        1 MOL      0.321859
     16 H5         -1.4870    2.8130    2.1920 h1        1 MOL      0.065366
     17 H6         -3.9870    3.6950    3.6470 hc        1 MOL      0.089426
     18 H7         -3.2040    2.0240    3.6480 hc        1 MOL      0.089426
     19 N2         -2.2350    4.4340    0.5860 n         1 MOL     -0.575832
     20 C7         -2.3910    5.4060   -0.4760 c3        1 MOL      0.456219
     21 C8         -3.3440    5.0790   -1.5460 c         1 MOL      0.360981
     22 O5         -3.4850    5.8370   -2.5200 o         1 MOL     -0.561201
     23 C9         -0.9140    5.7000   -0.9480 c3        1 MOL     -0.123430
     24 H8         -1.7810    3.5800    0.2750 hn        1 MOL      0.311914
     25 H9         -2.7280    6.3470   -0.0410 h1        1 MOL     -0.036909
     26 H10        -1.0920    6.3980   -1.7610 hc        1 MOL      0.018445
     27 H11        -0.2920    6.1520   -0.1770 hc        1 MOL      0.018445
     28 H12        -0.3980    4.7800   -1.2320 hc        1 MOL      0.018445
     29 N3         -4.0880    3.9510   -1.5380 n         1 MOL     -0.264415
     30 C10        -4.9300    3.5500   -2.6520 c3        1 MOL      0.101393
     31 C11        -6.0730    2.6930   -2.2650 c         1 MOL      0.382602
     32 O6         -7.0050    2.5340   -3.0280 o         1 MOL     -0.553983
     33 C12        -4.0730    2.7840   -3.6540 c3        1 MOL     -0.035781
     34 C13        -3.1810    1.6720   -3.0590 c         1 MOL      0.660899
     35 O7         -2.1000    1.5400   -3.6450 o         1 MOL     -0.694389
     36 O8         -3.3630    1.1360   -1.9590 o         1 MOL     -0.694389
     37 H13        -4.0890    3.3550   -0.7300 hn        1 MOL      0.127242
     38 H14        -5.4050    4.4430   -3.0630 h1        1 MOL      0.053856
     39 H15        -3.4820    3.4800   -4.2510 hc        1 MOL      0.000798
     40 H16        -4.8370    2.3640   -4.3120 hc        1 MOL      0.000798
     41 N4         -6.1600    2.0900   -1.0700 n         1 MOL     -0.127758
     42 C14        -7.3080    1.3220   -0.6230 c3        1 MOL     -0.282673
     43 C15        -7.3630   -0.1200   -1.1830 c         1 MOL      0.383012
     44 O9         -8.4250   -0.7580   -1.0940 o         1 MOL     -0.581971
     45 H17        -5.4680    2.2960   -0.3600 hn        1 MOL      0.108981
     46 H18        -8.2170    1.8440   -0.9140 h1        1 MOL      0.147216
     47 H19        -7.2610    1.4020    0.4530 h1        1 MOL      0.147216
     48 N5         -6.3590   -0.6230   -1.8740 n         1 MOL     -0.084729
     49 C16        -6.3690   -2.0230   -2.3600 c3        1 MOL     -0.053908
     50 C17        -6.4990   -3.1970   -1.3150 c         1 MOL      0.542536
     51 O10        -6.7260   -4.3030   -1.7890 o         1 MOL     -0.553630
     52 C18        -5.0960   -2.2320   -3.2240 c3        1 MOL     -0.214385
     53 C19        -3.7600   -2.2280   -2.4930 c         1 MOL      0.714734
     54 N6         -2.7620   -2.4360   -3.2440 n         1 MOL     -0.724918
     55 O11        -3.6140   -2.0590   -1.2820 o         1 MOL     -0.648940
     56 H20        -5.5550   -0.0240   -2.0310 hn        1 MOL      0.186248
     57 H21        -7.2460   -2.1180   -3.0030 h1        1 MOL      0.103931
     58 H22        -5.1150   -1.3890   -3.9280 hc        1 MOL      0.054171
     59 H23        -5.1040   -3.2150   -3.6990 hc        1 MOL      0.054171
     60 H24        -2.7860   -2.3090   -4.2440 hn        1 MOL      0.362594
     61 H25        -1.8440   -2.5520   -2.8340 hn        1 MOL      0.362594
     62 N7         -6.4400   -2.9520    0.0190 n         1 MOL     -0.292237
     63 C20        -6.5530   -4.0680    1.0870 c3        1 MOL     -0.304430
     64 C21        -5.1870   -4.4170    1.7410 c         1 MOL      0.578571
     65 O12        -5.1590   -5.2940    2.6210 o         1 MOL     -0.593720
     66 H26        -6.0040   -2.0860    0.2990 hn        1 MOL      0.234588
     67 H27        -7.0300   -4.9640    0.6960 h1        1 MOL      0.150731
     68 H28        -7.0280   -3.5040    1.8840 h1        1 MOL      0.150731
     69 N8         -4.0470   -3.9710    1.2150 n         1 MOL     -0.267278
     70 C22        -2.6300   -4.4450    1.4940 c3        1 MOL     -0.233868
     71 C23        -1.5800   -3.4220    1.5210 c         1 MOL      0.626190
     72 O13        -1.7610   -2.3920    0.8910 o         1 MOL     -0.451765
     73 C24        -2.2040   -5.4910    0.4920 c3        1 MOL      0.425733
     74 C25        -2.9380   -6.8450    0.5070 c3        1 MOL     -0.641455
     75 O14        -2.2820   -5.0910   -0.8380 oh        1 MOL     -0.581387
     76 H29        -4.0650   -3.3100    0.4560 hn        1 MOL      0.275134
     77 H30        -2.5620   -4.9600    2.4460 h1        1 MOL      0.113925
     78 H31        -1.1370   -5.6440    0.6520 h1        1 MOL      0.008321
     79 H32        -1.8710   -4.2320   -0.9940 ho        1 MOL      0.378497
     80 H33        -3.1230   -7.2680    1.4920 hc        1 MOL      0.178503
     81 H34        -3.9660   -6.6300    0.1970 hc        1 MOL      0.178503
     82 H35        -2.4220   -7.5710   -0.1260 hc        1 MOL      0.178503
     83 N9         -0.4720   -3.5800    2.3390 n         1 MOL     -0.658648
     84 C26         0.6630   -2.7080    2.1920 c3        1 MOL     -0.002386
     85 C27         1.4650   -3.0050    0.8600 c         1 MOL      0.566849
     86 O15         1.7430   -4.1290    0.5500 o         1 MOL     -0.568042
     87 C28         1.6250   -2.7960    3.3760 c3        1 MOL      0.231264
     88 C29         0.7940   -2.6720    4.7610 c3        1 MOL      0.060763
     89 C30         2.7660   -1.8620    3.3060 c3        1 MOL     -0.306554
     90 C31         1.5680   -3.0270    5.9910 c3        1 MOL     -0.023634
     91 H36        -0.3570   -4.4600    2.8350 hn        1 MOL      0.321536
     92 H37         0.3180   -1.6830    2.2570 h1        1 MOL      0.013594
     93 H38         1.9590   -3.8330    3.3060 hc        1 MOL     -0.034766
     94 H39        -0.0710   -3.3230    4.8810 hc        1 MOL     -0.010482
     95 H40         0.4340   -1.6480    4.8610 hc        1 MOL     -0.010482
     96 H41         3.3830   -2.0770    4.1780 hc        1 MOL      0.052548
     97 H42         3.4590   -1.9410    2.4610 hc        1 MOL      0.052548
     98 H43         2.3800   -0.8420    3.3170 hc        1 MOL      0.052548
     99 H44         2.3860   -2.3460    6.2410 hc        1 MOL     -0.007927
    100 H45         0.8920   -3.0480    6.8500 hc        1 MOL     -0.007927
    101 H46         2.0470   -4.0020    5.9190 hc        1 MOL     -0.007927
    102 N10         1.7850   -1.9190    0.1730 n         1 MOL     -0.459621
    103 C32         2.7080   -1.9060   -1.0140 c3        1 MOL      0.105754
    104 C33         4.1200   -1.4130   -0.8020 c         1 MOL      0.375589
    105 O16         4.4520   -0.9270    0.2770 o         1 MOL     -0.324146
    106 C34         2.0150   -1.1970   -2.1670 c3        1 MOL     -0.167383
    107 C35         0.5010   -1.6630   -2.3890 c         1 MOL      0.705997
    108 O17         0.2570   -2.3600   -3.3730 o         1 MOL     -0.683080
    109 O18        -0.3610   -1.2700   -1.6100 o         1 MOL     -0.683080
    110 H47         1.5410   -0.9980    0.5010 hn        1 MOL      0.505001
    111 H48         2.8160   -2.8830   -1.4700 h1        1 MOL      0.062270
    112 H49         2.5580   -1.3430   -3.1030 hc        1 MOL      0.028439
    113 H50         2.1220   -0.1350   -1.9650 hc        1 MOL      0.028439
    114 N11         5.0300   -1.4640   -1.8110 n         1 MOL     -0.616678
    115 C36         6.4880   -1.2320   -1.4930 c3        1 MOL      0.373095
    116 C37         6.9330    0.1680   -1.1940 c         1 MOL      0.257600
    117 O19         7.6940    0.2840   -0.1760 o         1 MOL     -0.465641
    118 C38         7.3480   -1.9310   -2.5560 c3        1 MOL     -0.109887
    119 C39         8.7350   -2.1710   -2.1050 ca        1 MOL     -0.001293
    120 C40         9.6710   -1.2070   -2.4830 ca        1 MOL     -0.086694
    121 C41         9.1160   -3.2510   -1.3600 ca        1 MOL     -0.086694
    122 C42        10.9910   -1.2830   -2.1170 ca        1 MOL     -0.176534
    123 C43        10.4700   -3.4380   -1.0550 ca        1 MOL     -0.176534
    124 C44        11.3620   -2.4310   -1.3520 ca        1 MOL     -0.031643
    125 H51         4.7930   -1.6880   -2.7700 hn        1 MOL      0.308343
    126 H52         6.7080   -1.8560   -0.6340 h1        1 MOL      0.053041
    127 H53         7.3540   -1.3190   -3.4540 hc        1 MOL      0.038536
    128 H54         6.9400   -2.8600   -2.9510 hc        1 MOL      0.038536
    129 H55         9.3700   -0.3390   -3.0570 ha        1 MOL      0.101783
    130 H56         8.3810   -3.9620   -1.0060 ha        1 MOL      0.101783
    131 H57        11.7160   -0.5620   -2.4730 ha        1 MOL      0.125025
    132 H58        10.7440   -4.2570   -0.4160 ha        1 MOL      0.125025
    133 H59        12.4090   -2.5870   -1.1250 ha        1 MOL      0.069154
    134 N12         6.4540    1.2250   -1.9140 n         1 MOL     -0.058123
    135 C45         6.5820    2.6190   -1.5640 c3        1 MOL     -0.058445
    136 C46         5.9230    2.9450   -0.2360 c         1 MOL      0.399625
    137 O20         6.3620    3.8070    0.4780 o         1 MOL     -0.479973
    138 C47         5.8710    3.4050   -2.6620 c3        1 MOL      0.103925
    139 C48         6.0230    2.5150   -3.8880 c3        1 MOL     -0.139178
    140 C49         5.8460    1.1600   -3.2370 c3        1 MOL      0.003694
    141 H60         7.6490    2.8510   -1.5110 h1        1 MOL      0.062570
    142 H61         4.8160    3.4740   -2.3790 hc        1 MOL      0.006731
    143 H62         6.2850    4.4080   -2.7840 hc        1 MOL      0.006731
    144 H63         5.2840    2.6610   -4.6760 hc        1 MOL      0.052097
    145 H64         7.0330    2.5690   -4.2910 hc        1 MOL      0.052097
    146 H65         4.7870    0.9350   -3.1890 h1        1 MOL      0.035207
    147 H66         6.3210    0.4140   -3.8680 h1        1 MOL      0.035207
    148 N13         4.7980    2.2870    0.0820 n         1 MOL     -0.231502
    149 C50         4.2260    2.4530    1.4290 c3        1 MOL     -0.163998
    150 C51         5.1650    1.8580    2.5050 c         1 MOL      0.435357
    151 O21         5.3980    2.5920    3.4700 o         1 MOL     -0.540464
    152 C52         2.8380    1.7550    1.4170 c3        1 MOL     -0.061105
    153 C53         1.8550    2.2930    0.3970 c3        1 MOL     -0.132920
    154 C54         0.4660    1.5250    0.3930 c         1 MOL      0.476261
    155 O22        -0.5380    1.9710   -0.2490 o         1 MOL     -0.647148
    156 O23         0.3510    0.4940    1.0160 o         1 MOL     -0.647148
    157 H67         4.5790    1.4000   -0.3480 hn        1 MOL      0.216826
    158 H68         4.1000    3.5030    1.6990 h1        1 MOL      0.158905
    159 H69         2.3700    1.8180    2.3930 hc        1 MOL      0.051507
    160 H70         2.9200    0.6960    1.1880 hc        1 MOL      0.051507
    161 H71         2.1600    2.2230   -0.6420 hc        1 MOL      0.074727
    162 H72         1.7030    3.3440    0.6300 hc        1 MOL      0.074727
    163 N14         5.7730    0.6600    2.3010 n         1 MOL      0.040071
    164 C55         6.5870   -0.0180    3.2650 c3        1 MOL     -0.286423
    165 H73         7.5560    0.4770    3.3340 h1        1 MOL      0.096243
    166 H74         6.0960    0.0060    4.2380 h1        1 MOL      0.096243
    167 H75         6.7300   -1.0540    2.9560 h1        1 MOL      0.096243
    168 H76         5.5270    0.2750    1.3990 hn        1 MOL     -0.010863
    169 Ca1        -2.0840   -0.0090   -0.0570 Ca        1 MOL      1.604809
    170 O24        -1.5720    0.0870    2.7620 oh        1 MOL     -0.804662
    171 H77        -0.6420    0.1490    2.5400 ho        1 MOL      0.391434
    172 H78        -1.6910    0.6840    3.4940 ho        1 MOL      0.391434
    173 O25        -4.5540   -0.8660    1.1140 oh        1 MOL     -0.804662
    174 H79        -4.8850    0.0140    0.9540 ho        1 MOL      0.391434
    175 H80        -4.8160   -1.0640    2.0090 ho        1 MOL      0.391434
@<TRIPOS>BOND
     1    1    2 1   
     2    1    4 1   
     3    1    5 1   
     4    1    6 1   
     5    2    3 2   
     6    2    7 1   
     7    7    8 1   
     8    7   15 1   
     9    8    9 1   
    10    8   11 1   
    11    8   16 1   
    12    9   10 2   
    13    9   19 1   
    14   11   12 1   
    15   11   17 1   
    16   11   18 1   
    17   12   13 1   
    18   12   14 1   
    19   19   20 1   
    20   19   24 1   
    21   20   21 1   
    22   20   23 1   
    23   20   25 1   
    24   21   22 2   
    25   21   29 1   
    26   23   26 1   
    27   23   27 1   
    28   23   28 1   
    29   29   30 1   
    30   29   37 1   
    31   30   31 1   
    32   30   33 1   
    33   30   38 1   
    34   31   32 2   
    35   31   41 1   
    36   33   34 1   
    37   33   39 1   
    38   33   40 1   
    39   34   35 1   
    40   34   36 1   
    41   41   42 1   
    42   41   45 1   
    43   42   43 1   
    44   42   46 1   
    45   42   47 1   
    46   43   44 2   
    47   43   48 1   
    48   48   49 1   
    49   48   56 1   
    50   49   50 1   
    51   49   52 1   
    52   49   57 1   
    53   50   51 2   
    54   50   62 1   
    55   52   53 1   
    56   52   58 1   
    57   52   59 1   
    58   53   54 1   
    59   53   55 2   
    60   54   60 1   
    61   54   61 1   
    62   62   63 1   
    63   62   66 1   
    64   63   64 1   
    65   63   67 1   
    66   63   68 1   
    67   64   65 2   
    68   64   69 1   
    69   69   70 1   
    70   69   76 1   
    71   70   71 1   
    72   70   73 1   
    73   70   77 1   
    74   71   72 2   
    75   71   83 1   
    76   73   74 1   
    77   73   75 1   
    78   73   78 1   
    79   74   80 1   
    80   74   81 1   
    81   74   82 1   
    82   75   79 1   
    83   83   84 1   
    84   83   91 1   
    85   84   85 1   
    86   84   87 1   
    87   84   92 1   
    88   85   86 2   
    89   85  102 1   
    90   87   88 1   
    91   87   89 1   
    92   87   93 1   
    93   88   90 1   
    94   88   94 1   
    95   88   95 1   
    96   89   96 1   
    97   89   97 1   
    98   89   98 1   
    99   90   99 1   
   100   90  100 1   
   101   90  101 1   
   102  102  103 1   
   103  102  110 1   
   104  103  104 1   
   105  103  106 1   
   106  103  111 1   
   107  104  105 2   
   108  104  114 1   
   109  106  107 1   
   110  106  112 1   
   111  106  113 1   
   112  107  108 1   
   113  107  109 1   
   114  114  115 1   
   115  114  125 1   
   116  115  116 1   
   117  115  118 1   
   118  115  126 1   
   119  116  117 2   
   120  116  134 1   
   121  118  119 1   
   122  118  127 1   
   123  118  128 1   
   124  119  120 ar  
   125  119  121 ar  
   126  120  122 ar  
   127  120  129 1   
   128  121  123 ar  
   129  121  130 1   
   130  122  124 ar  
   131  122  131 1   
   132  123  124 ar  
   133  123  132 1   
   134  124  133 1   
   135  134  135 1   
   136  134  140 1   
   137  135  136 1   
   138  135  138 1   
   139  135  141 1   
   140  136  137 2   
   141  136  148 1   
   142  138  139 1   
   143  138  142 1   
   144  138  143 1   
   145  139  140 1   
   146  139  144 1   
   147  139  145 1   
   148  140  146 1   
   149  140  147 1   
   150  148  149 1   
   151  148  157 1   
   152  149  150 1   
   153  149  152 1   
   154  149  158 1   
   155  150  151 2   
   156  150  163 1   
   157  152  153 1   
   158  152  159 1   
   159  152  160 1   
   160  153  154 1   
   161  153  161 1   
   162  153  162 1   
   163  154  155 1   
   164  154  156 1   
   165  163  164 1   
   166  163  168 1   
   167  164  165 1   
   168  164  166 1   
   169  164  167 1   
   170  170  171 1   
   171  170  172 1   
   172  173  174 1   
   173  173  175 1   
@<TRIPOS>SUBSTRUCTURE
     1 MOL         1 TEMP              0 ****  ****    0 ROOT
