@<TRIPOS>MOLECULE
MOL
  175   173     1     0     0
SMALL
resp


@<TRIPOS>ATOM
      1 C1          0.1620    4.5630    5.0490 c3        1 MOL     -0.329384
      2 C2         -0.5340    4.4490    3.7280 c         1 MOL      0.736548
      3 O1          0.1000    4.7000    2.7420 o         1 MOL     -0.563922
      4 H1         -0.2940    5.3650    5.6310 hc        1 MOL      0.076091
      5 H2          0.0680    3.6230    5.5930 hc        1 MOL      0.076091
      6 H3          1.2160    4.7860    4.8870 hc        1 MOL      0.076091
      7 N1         -1.7090    3.9060    3.6350 n         1 MOL     -0.659842
      8 C3         -2.3790    3.5080    2.4150 c3        1 MOL      0.229105
      9 C4         -2.6240    4.7760    1.5440 c         1 MOL      0.600271
     10 O2         -2.9480    5.9090    1.9130 o         1 MOL     -0.567360
     11 C5         -3.8070    2.8980    2.6400 c3        1 MOL     -0.551557
     12 C6         -4.4430    2.1830    1.4280 c         1 MOL      0.775301
     13 O3         -5.4970    1.5150    1.6420 o         1 MOL     -0.649362
     14 O4         -3.8150    1.9960    0.3660 o         1 MOL     -0.649362
     15 H4         -2.1510    3.6940    4.5190 hn        1 MOL      0.320500
     16 H5         -1.7850    2.7640    1.8760 h1        1 MOL      0.108924
     17 H6         -4.5750    3.6170    2.9430 hc        1 MOL      0.141890
     18 H7         -3.6940    2.0770    3.3450 hc        1 MOL      0.141890
     19 N2         -2.5470    4.5410    0.1840 n         1 MOL     -0.598066
     20 C7         -2.9950    5.4190   -0.8970 c3        1 MOL      0.508183
     21 C8         -4.1750    4.8770   -1.8130 c         1 MOL      0.294697
     22 O5         -4.8630    5.6290   -2.5270 o         1 MOL     -0.574199
     23 C9         -1.7950    5.7810   -1.7800 c3        1 MOL     -0.231419
     24 H8         -2.2540    3.6110   -0.0650 hn        1 MOL      0.181619
     25 H9         -3.4090    6.3610   -0.5320 h1        1 MOL     -0.031843
     26 H10        -1.4810    4.9310   -2.3760 hc        1 MOL      0.047407
     27 H11        -2.0080    6.6170   -2.4460 hc        1 MOL      0.047407
     28 H12        -1.0170    6.1730   -1.1240 hc        1 MOL      0.047407
     29 N3         -4.4210    3.5810   -1.8270 n         1 MOL     -0.326737
     30 C10        -5.2180    2.9110   -2.8960 c3        1 MOL      0.251900
     31 C11        -6.3840    1.9930   -2.4060 c         1 MOL      0.254031
     32 O6         -7.1720    1.6880   -3.2700 o         1 MOL     -0.521657
     33 C12        -4.3070    2.0970   -3.7770 c3        1 MOL     -0.287281
     34 C13        -3.5320    1.0220   -3.0320 c         1 MOL      0.786788
     35 O7         -2.2750    1.1440   -2.8950 o         1 MOL     -0.751481
     36 O8         -4.0910    0.2050   -2.3060 o         1 MOL     -0.751481
     37 H13        -3.8470    3.0350   -1.2120 hn        1 MOL      0.292245
     38 H14        -5.7330    3.6730   -3.4900 h1        1 MOL      0.077324
     39 H15        -3.5440    2.7080   -4.2670 hc        1 MOL      0.057105
     40 H16        -4.8340    1.5660   -4.5680 hc        1 MOL      0.057105
     41 N4         -6.5620    1.6090   -1.0910 n         1 MOL     -0.037917
     42 C14        -7.6290    0.6980   -0.7100 c3        1 MOL     -0.345046
     43 C15        -7.3570   -0.8280   -1.0050 c         1 MOL      0.653136
     44 O9         -8.2050   -1.5870   -0.5860 o         1 MOL     -0.648257
     45 H17        -5.9340    2.0070   -0.4000 hn        1 MOL      0.069230
     46 H18        -8.5160    1.1100   -1.2010 h1        1 MOL      0.133689
     47 H19        -7.7650    0.8350    0.3590 h1        1 MOL      0.133689
     48 N5         -6.3520   -1.2970   -1.6730 n         1 MOL     -0.381096
     49 C16        -6.0910   -2.7730   -2.0220 c3        1 MOL     -0.076777
     50 C17        -5.8590   -3.7240   -0.8320 c         1 MOL      0.389990
     51 O10        -5.4400   -4.9280   -0.9340 o         1 MOL     -0.531495
     52 C18        -4.9320   -2.7060   -3.0390 c3        1 MOL     -0.133852
     53 C19        -3.4950   -2.6720   -2.5130 c         1 MOL      0.580680
     54 N6         -2.5150   -2.7400   -3.3880 n         1 MOL     -0.706066
     55 O11        -3.2520   -2.4510   -1.3390 o         1 MOL     -0.484451
     56 H20        -5.5060   -0.7620   -1.7510 hn        1 MOL      0.330378
     57 H21        -6.9970   -3.0760   -2.5450 h1        1 MOL      0.124792
     58 H22        -5.0550   -1.8320   -3.6830 hc        1 MOL      0.050363
     59 H23        -4.8950   -3.4790   -3.8050 hc        1 MOL      0.050363
     60 H24        -2.7300   -2.7490   -4.3670 hn        1 MOL      0.347195
     61 H25        -1.5640   -2.6040   -3.0610 hn        1 MOL      0.347195
     62 N7         -6.0070   -3.1970    0.3620 n         1 MOL     -0.101331
     63 C20        -5.9600   -4.0100    1.5640 c3        1 MOL     -0.313319
     64 C21        -4.5330   -4.4370    2.0890 c         1 MOL      0.637393
     65 O12        -4.5550   -5.2030    3.0360 o         1 MOL     -0.578680
     66 H26        -6.0580   -2.1920    0.4680 hn        1 MOL      0.266095
     67 H27        -6.5440   -4.9100    1.3660 h1        1 MOL      0.123670
     68 H28        -6.4740   -3.4070    2.3220 h1        1 MOL      0.123670
     69 N8         -3.3720   -3.9500    1.5640 n         1 MOL     -0.354091
     70 C22        -1.9880   -4.3650    1.8820 c3        1 MOL     -0.091445
     71 C23        -0.9820   -3.1930    1.7630 c         1 MOL      0.519578
     72 O13        -1.2390   -2.2340    1.0380 o         1 MOL     -0.556186
     73 C24        -1.5550   -5.4530    0.8610 c3        1 MOL      0.412754
     74 C25        -2.1920   -6.7580    1.2320 c3        1 MOL     -0.412626
     75 O14        -1.9160   -5.1370   -0.4620 oh        1 MOL     -0.532261
     76 H29        -3.4640   -3.3760    0.7450 hn        1 MOL      0.146505
     77 H30        -2.0050   -4.7630    2.8970 h1        1 MOL      0.090642
     78 H31        -0.4950   -5.7160    0.9640 h1        1 MOL     -0.029773
     79 H32        -1.6090   -4.2380   -0.6490 ho        1 MOL      0.330547
     80 H33        -1.8770   -7.5280    0.5180 hc        1 MOL      0.107446
     81 H34        -2.0280   -7.1070    2.2430 hc        1 MOL      0.107446
     82 H35        -3.2760   -6.7440    1.1490 hc        1 MOL      0.107446
     83 N9          0.0900   -3.1540    2.5700 n         1 MOL     -0.421107
     84 C26         1.1380   -2.2440    2.4190 c3        1 MOL      0.051559
     85 C27         1.9250   -2.5940    1.1290 c         1 MOL      0.539275
     86 O15         2.4060   -3.7500    1.0460 o         1 MOL     -0.620039
     87 C28         1.9300   -2.1020    3.7290 c3        1 MOL      0.085780
     88 C29         1.1750   -1.4070    4.7670 c3        1 MOL      0.195558
     89 C30         3.2680   -1.4420    3.4070 c3        1 MOL     -0.331583
     90 C31         1.7310   -1.5680    6.1460 c3        1 MOL     -0.067098
     91 H36         0.3370   -3.9930    3.0830 hn        1 MOL      0.247047
     92 H37         0.7320   -1.2410    2.3000 h1        1 MOL      0.082953
     93 H38         2.0560   -3.0900    4.1710 hc        1 MOL      0.000079
     94 H39         0.1680   -1.8240    4.7920 hc        1 MOL     -0.059869
     95 H40         1.0150   -0.3560    4.5200 hc        1 MOL     -0.059869
     96 H41         3.0840   -0.4940    2.9180 hc        1 MOL      0.060958
     97 H42         3.8050   -1.2390    4.3350 hc        1 MOL      0.060958
     98 H43         3.9100   -2.0280    2.7390 hc        1 MOL      0.060958
     99 H44         1.8650   -2.6310    6.3310 hc        1 MOL      0.000886
    100 H45         2.6900   -1.0680    6.3200 hc        1 MOL      0.000886
    101 H46         1.0350   -1.2280    6.9210 hc        1 MOL      0.000886
    102 N10         1.9080   -1.7510    0.1320 n         1 MOL     -0.038450
    103 C32         2.7250   -1.8480   -1.1300 c3        1 MOL     -0.001448
    104 C33         4.1740   -1.3750   -0.8890 c         1 MOL      0.519901
    105 O16         4.4340   -0.6740    0.0970 o         1 MOL     -0.442912
    106 C34         2.0530   -0.9780   -2.2400 c3        1 MOL     -0.296742
    107 C35         0.5780   -1.3460   -2.4820 c         1 MOL      0.767455
    108 O17        -0.3370   -0.8750   -1.7130 o         1 MOL     -0.671075
    109 O18         0.2020   -2.0360   -3.4180 o         1 MOL     -0.671075
    110 H47         1.4400   -0.8740    0.3000 hn        1 MOL     -0.174698
    111 H48         2.8630   -2.8860   -1.4500 h1        1 MOL      0.067316
    112 H49         2.6200   -1.1100   -3.1520 hc        1 MOL      0.086029
    113 H50         2.1900    0.0410   -1.8980 hc        1 MOL      0.086029
    114 N11         5.1260   -1.6850   -1.7650 n         1 MOL     -0.666145
    115 C36         6.5150   -1.4220   -1.3010 c3        1 MOL      0.476757
    116 C37         6.7620    0.0860   -1.0970 c         1 MOL      0.031250
    117 O19         7.4510    0.3940   -0.1210 o         1 MOL     -0.457920
    118 C38         7.5030   -1.9900   -2.2540 c3        1 MOL     -0.431468
    119 C39         9.0000   -1.8170   -1.9580 ca        1 MOL      0.141971
    120 C40         9.7810   -2.6910   -1.1840 ca        1 MOL     -0.096158
    121 C41         9.7060   -0.8680   -2.6890 ca        1 MOL     -0.096158
    122 C42        11.2040   -2.5870   -1.0080 ca        1 MOL     -0.181434
    123 C43        11.1580   -0.8910   -2.7370 ca        1 MOL     -0.181434
    124 C44        11.8600   -1.6820   -1.8680 ca        1 MOL     -0.050682
    125 H51         4.8880   -2.1900   -2.6070 hn        1 MOL      0.352359
    126 H52         6.7040   -1.9540   -0.3740 h1        1 MOL      0.067879
    127 H53         7.2840   -1.7480   -3.2950 hc        1 MOL      0.110093
    128 H54         7.2100   -3.0300   -2.2470 hc        1 MOL      0.110093
    129 H55         9.1850   -3.4750   -0.7270 ha        1 MOL      0.089253
    130 H56         9.0780   -0.3140   -3.3650 ha        1 MOL      0.089253
    131 H57        11.8020   -3.1730   -0.3320 ha        1 MOL      0.128006
    132 H58        11.6430   -0.1840   -3.3910 ha        1 MOL      0.128006
    133 H59        12.9410   -1.6270   -1.8380 ha        1 MOL      0.090243
    134 N12         6.2200    1.0020   -1.8810 n         1 MOL      0.206223
    135 C45         6.3780    2.4450   -1.5180 c3        1 MOL      0.157107
    136 C46         5.6830    2.8040   -0.1780 c         1 MOL      0.166066
    137 O20         6.2590    3.7070    0.4710 o         1 MOL     -0.472795
    138 C47         5.7530    3.2320   -2.6610 c3        1 MOL     -0.118113
    139 C48         5.7970    2.2710   -3.8570 c3        1 MOL     -0.111828
    140 C49         5.7230    0.8220   -3.2390 c3        1 MOL     -0.094292
    141 H60         7.4410    2.6970   -1.4800 h1        1 MOL      0.032932
    142 H61         4.6700    3.2150   -2.5500 hc        1 MOL      0.064826
    143 H62         6.2390    4.1940   -2.8320 hc        1 MOL      0.064826
    144 H63         4.9030    2.3760   -4.4710 hc        1 MOL      0.045636
    145 H64         6.7300    2.4510   -4.3950 hc        1 MOL      0.045636
    146 H65         4.6860    0.4980   -3.1520 h1        1 MOL      0.046941
    147 H66         6.3580    0.1600   -3.8350 h1        1 MOL      0.046941
    148 N13         4.5420    2.2430    0.1830 n         1 MOL     -0.115466
    149 C50         3.9500    2.5180    1.4990 c3        1 MOL     -0.039557
    150 C51         4.8090    1.9730    2.6970 c         1 MOL      0.369385
    151 O21         4.9360    2.6100    3.7730 o         1 MOL     -0.544739
    152 C52         2.5130    1.8300    1.4400 c3        1 MOL     -0.079243
    153 C53         1.6710    2.4310    0.3990 c3        1 MOL     -0.142297
    154 C54         0.3290    1.6840    0.3680 c         1 MOL      0.676355
    155 O22        -0.6300    2.0240   -0.2950 o         1 MOL     -0.635128
    156 O23         0.1750    0.6150    1.0040 o         1 MOL     -0.635128
    157 H67         4.0600    1.5500   -0.3580 hn        1 MOL      0.220381
    158 H68         3.8690    3.5700    1.7810 h1        1 MOL      0.103095
    159 H69         1.9890    1.9310    2.3870 hc        1 MOL      0.077154
    160 H70         2.7260    0.7810    1.2280 hc        1 MOL      0.077154
    161 H71         2.1000    2.4280   -0.6020 hc        1 MOL      0.042674
    162 H72         1.4550    3.4700    0.6750 hc        1 MOL      0.042674
    163 N14         5.3960    0.7550    2.4920 n         1 MOL      0.073952
    164 C55         6.4860    0.2280    3.3610 c3        1 MOL     -0.203190
    165 H73         7.0420   -0.5390    2.8200 h1        1 MOL      0.071914
    166 H74         7.1600    1.0400    3.6330 h1        1 MOL      0.071914
    167 H75         6.0550   -0.2050    4.2630 h1        1 MOL      0.071914
    168 H76         5.3190    0.4050    1.5410 hn        1 MOL      0.077370
    169 Ca1        -2.2170   -0.0900   -0.3110 Ca        1 MOL      1.718029
    170 O24        -1.9640    0.3340    2.4940 oh        1 MOL     -0.802168
    171 H77        -1.9250    0.8600    3.2840 ho        1 MOL      0.375628
    172 H78        -1.0400    0.1990    2.2510 ho        1 MOL      0.375628
    173 O25        -4.6360   -0.6440    0.6920 oh        1 MOL     -0.802168
    174 H79        -4.8980    0.2730    0.7230 ho        1 MOL      0.375628
    175 H80        -4.6610   -0.9360    1.6040 ho        1 MOL      0.375628
@<TRIPOS>BOND
     1    1    2 1   
     2    1    4 1   
     3    1    5 1   
     4    1    6 1   
     5    2    3 2   
     6    2    7 1   
     7    7    8 1   
     8    7   15 1   
     9    8    9 1   
    10    8   11 1   
    11    8   16 1   
    12    9   10 2   
    13    9   19 1   
    14   11   12 1   
    15   11   17 1   
    16   11   18 1   
    17   12   13 1   
    18   12   14 1   
    19   19   20 1   
    20   19   24 1   
    21   20   21 1   
    22   20   23 1   
    23   20   25 1   
    24   21   22 2   
    25   21   29 1   
    26   23   26 1   
    27   23   27 1   
    28   23   28 1   
    29   29   30 1   
    30   29   37 1   
    31   30   31 1   
    32   30   33 1   
    33   30   38 1   
    34   31   32 2   
    35   31   41 1   
    36   33   34 1   
    37   33   39 1   
    38   33   40 1   
    39   34   35 1   
    40   34   36 1   
    41   41   42 1   
    42   41   45 1   
    43   42   43 1   
    44   42   46 1   
    45   42   47 1   
    46   43   44 2   
    47   43   48 1   
    48   48   49 1   
    49   48   56 1   
    50   49   50 1   
    51   49   52 1   
    52   49   57 1   
    53   50   51 2   
    54   50   62 1   
    55   52   53 1   
    56   52   58 1   
    57   52   59 1   
    58   53   54 1   
    59   53   55 2   
    60   54   60 1   
    61   54   61 1   
    62   62   63 1   
    63   62   66 1   
    64   63   64 1   
    65   63   67 1   
    66   63   68 1   
    67   64   65 2   
    68   64   69 1   
    69   69   70 1   
    70   69   76 1   
    71   70   71 1   
    72   70   73 1   
    73   70   77 1   
    74   71   72 2   
    75   71   83 1   
    76   73   74 1   
    77   73   75 1   
    78   73   78 1   
    79   74   80 1   
    80   74   81 1   
    81   74   82 1   
    82   75   79 1   
    83   83   84 1   
    84   83   91 1   
    85   84   85 1   
    86   84   87 1   
    87   84   92 1   
    88   85   86 2   
    89   85  102 1   
    90   87   88 1   
    91   87   89 1   
    92   87   93 1   
    93   88   90 1   
    94   88   94 1   
    95   88   95 1   
    96   89   96 1   
    97   89   97 1   
    98   89   98 1   
    99   90   99 1   
   100   90  100 1   
   101   90  101 1   
   102  102  103 1   
   103  102  110 1   
   104  103  104 1   
   105  103  106 1   
   106  103  111 1   
   107  104  105 2   
   108  104  114 1   
   109  106  107 1   
   110  106  112 1   
   111  106  113 1   
   112  107  108 1   
   113  107  109 1   
   114  114  115 1   
   115  114  125 1   
   116  115  116 1   
   117  115  118 1   
   118  115  126 1   
   119  116  117 2   
   120  116  134 1   
   121  118  119 1   
   122  118  127 1   
   123  118  128 1   
   124  119  120 ar  
   125  119  121 ar  
   126  120  122 ar  
   127  120  129 1   
   128  121  123 ar  
   129  121  130 1   
   130  122  124 ar  
   131  122  131 1   
   132  123  124 ar  
   133  123  132 1   
   134  124  133 1   
   135  134  135 1   
   136  134  140 1   
   137  135  136 1   
   138  135  138 1   
   139  135  141 1   
   140  136  137 2   
   141  136  148 1   
   142  138  139 1   
   143  138  142 1   
   144  138  143 1   
   145  139  140 1   
   146  139  144 1   
   147  139  145 1   
   148  140  146 1   
   149  140  147 1   
   150  148  149 1   
   151  148  157 1   
   152  149  150 1   
   153  149  152 1   
   154  149  158 1   
   155  150  151 2   
   156  150  163 1   
   157  152  153 1   
   158  152  159 1   
   159  152  160 1   
   160  153  154 1   
   161  153  161 1   
   162  153  162 1   
   163  154  155 1   
   164  154  156 1   
   165  163  164 1   
   166  163  168 1   
   167  164  165 1   
   168  164  166 1   
   169  164  167 1   
   170  170  171 1   
   171  170  172 1   
   172  173  174 1   
   173  173  175 1   
@<TRIPOS>SUBSTRUCTURE
     1 MOL         1 TEMP              0 ****  ****    0 ROOT
