@<TRIPOS>MOLECULE
MOL
  169   169     1     0     0
SMALL
resp


@<TRIPOS>ATOM
      1 C1          0.3020    3.5940    5.8660 c3        1 MOL     -0.459544
      2 C2         -0.0310    3.3780    4.4090 c         1 MOL      0.792490
      3 O1          0.6870    3.8530    3.5510 o         1 MOL     -0.556554
      4 H1          0.9280    4.4800    5.9670 hc        1 MOL      0.108593
      5 H2         -0.6180    3.7330    6.4330 hc        1 MOL      0.108593
      6 H3          0.8380    2.7250    6.2480 hc        1 MOL      0.108593
      7 N1         -1.2770    2.8750    4.1280 n         1 MOL     -0.640187
      8 C3         -1.7340    2.7170    2.7560 c3        1 MOL      0.258006
      9 C4         -1.9360    4.0530    2.0490 c         1 MOL      0.393481
     10 O2         -2.4410    5.0220    2.6230 o         1 MOL     -0.560845
     11 C5         -3.0540    1.8360    2.7250 c3        1 MOL     -0.411037
     12 C6         -3.3290    1.3170    1.3010 c         1 MOL      0.887696
     13 O3         -3.0860    1.8860    0.2680 o         1 MOL     -0.787290
     14 O4         -3.8490    0.2000    1.1740 o         1 MOL     -0.787290
     15 H4         -1.7730    2.4180    4.8880 hn        1 MOL      0.312816
     16 H5         -1.0230    2.0890    2.2270 h1        1 MOL      0.040059
     17 H6         -3.9380    2.4330    2.9470 hc        1 MOL      0.104016
     18 H7         -3.0130    1.0580    3.4950 hc        1 MOL      0.104016
     19 N2         -1.4310    4.1790    0.7940 n         1 MOL     -0.218669
     20 C7         -1.6900    5.3530   -0.0450 c3        1 MOL      0.314784
     21 C8         -2.9940    5.3140   -0.8960 c         1 MOL      0.427156
     22 O5         -3.3750    6.3200   -1.4300 o         1 MOL     -0.564184
     23 C9         -0.4630    5.6480   -0.8520 c3        1 MOL     -0.282232
     24 H8         -1.0050    3.3880    0.3310 hn        1 MOL      0.180191
     25 H9         -1.8490    6.2200    0.6040 h1        1 MOL     -0.007485
     26 H10         0.3380    5.5870   -0.1190 hc        1 MOL      0.064314
     27 H11        -0.3890    4.8700   -1.6140 hc        1 MOL      0.064314
     28 H12        -0.5010    6.5950   -1.3960 hc        1 MOL      0.064314
     29 N3         -3.6580    4.1570   -1.1090 n         1 MOL     -0.435794
     30 C10        -4.6940    3.8750   -2.1080 c3        1 MOL      0.200602
     31 C11        -5.9790    3.1800   -1.5030 c         1 MOL      0.403168
     32 O6         -7.0000    3.1420   -2.1320 o         1 MOL     -0.551871
     33 C12        -4.0910    3.1050   -3.3310 c3        1 MOL     -0.194828
     34 C13        -3.5110    1.7520   -2.9810 c         1 MOL      0.827909
     35 O7         -4.1690    0.9180   -2.2980 o         1 MOL     -0.755508
     36 O8         -2.4300    1.3180   -3.4620 o         1 MOL     -0.755508
     37 H13        -3.2740    3.3490   -0.6530 hn        1 MOL      0.262343
     38 H14        -5.0640    4.8110   -2.5170 h1        1 MOL      0.049232
     39 H15        -3.2570    3.6740   -3.7320 hc        1 MOL      0.040887
     40 H16        -4.7830    2.9930   -4.1580 hc        1 MOL      0.040887
     41 N4         -5.9110    2.6870   -0.2570 n         1 MOL     -0.265672
     42 C14        -7.0150    2.0820    0.4880 c3        1 MOL     -0.129159
     43 C15        -7.3920    0.6360    0.1490 c         1 MOL      0.559557
     44 O9         -8.3460    0.0810    0.7180 o         1 MOL     -0.617151
     45 H17        -4.9700    2.6420    0.1130 hn        1 MOL      0.148374
     46 H18        -7.9590    2.6240    0.4970 h1        1 MOL      0.096227
     47 H19        -6.6740    2.0830    1.5200 h1        1 MOL      0.096227
     48 N5         -6.6430   -0.0090   -0.8040 n         1 MOL     -0.372344
     49 C16        -6.9830   -1.3550   -1.3660 c3        1 MOL     -0.017834
     50 C17        -6.8390   -2.6150   -0.4800 c         1 MOL      0.463510
     51 O10        -6.9360   -3.7500   -0.9170 o         1 MOL     -0.546198
     52 C18        -6.3530   -1.4750   -2.7780 c3        1 MOL     -0.103236
     53 C19        -4.8710   -1.8090   -2.7830 c         1 MOL      0.635596
     54 N6         -4.3240   -2.1780   -3.9470 n         1 MOL     -0.666564
     55 O11        -4.2370   -1.8620   -1.7370 o         1 MOL     -0.694745
     56 H20        -5.8930    0.4820   -1.2520 hn        1 MOL      0.360937
     57 H21        -8.0210   -1.2620   -1.7130 h1        1 MOL      0.098765
     58 H22        -6.3700   -0.5010   -3.2750 hc        1 MOL      0.039020
     59 H23        -6.8970   -2.2150   -3.3490 hc        1 MOL      0.039020
     60 H24        -4.8520   -2.3170   -4.8030 hn        1 MOL      0.335098
     61 H25        -3.3490   -2.4130   -4.0050 hn        1 MOL      0.335098
     62 N7         -6.5570   -2.4320    0.7920 n         1 MOL     -0.260747
     63 C20        -6.3760   -3.5000    1.8490 c3        1 MOL     -0.237159
     64 C21        -5.0230   -4.2250    1.9080 c         1 MOL      0.465430
     65 O12        -4.9420   -5.2590    2.5670 o         1 MOL     -0.545950
     66 H26        -6.3850   -1.4700    1.0680 hn        1 MOL      0.287894
     67 H27        -7.0420   -4.3240    1.6170 h1        1 MOL      0.135265
     68 H28        -6.7290   -3.1760    2.8320 h1        1 MOL      0.135265
     69 N8         -4.0260   -3.8130    1.1170 n         1 MOL      0.011771
     70 C22        -2.7170   -4.4780    0.9920 c3        1 MOL     -0.703605
     71 C23        -1.5860   -3.4720    1.0550 c         1 MOL      0.890305
     72 O13        -1.7200   -2.3820    0.5860 o         1 MOL     -0.643043
     73 C24        -2.6440   -5.3970   -0.2810 c3        1 MOL      0.628117
     74 C25        -3.7890   -6.3510   -0.4180 c3        1 MOL     -0.524848
     75 O14        -2.7440   -4.5540   -1.3940 oh        1 MOL     -0.589621
     76 H29        -4.0670   -2.8610    0.7740 hn        1 MOL      0.156556
     77 H30        -2.6630   -5.1670    1.8340 h1        1 MOL      0.157930
     78 H31        -1.6960   -5.9220   -0.2210 h1        1 MOL     -0.006016
     79 H32        -3.5860   -4.1620   -1.1680 ho        1 MOL      0.387078
     80 H33        -4.6540   -5.7340   -0.6520 hc        1 MOL      0.123714
     81 H34        -3.6020   -7.0340   -1.2460 hc        1 MOL      0.123714
     82 H35        -3.9500   -6.9140    0.5090 hc        1 MOL      0.123714
     83 N9         -0.4280   -3.7870    1.7060 n         1 MOL     -0.474476
     84 C26         0.7310   -2.9350    1.8100 c3        1 MOL     -0.318129
     85 C27         1.4640   -3.2150    0.4850 c         1 MOL      0.572182
     86 O15         1.7740   -4.3810    0.1330 o         1 MOL     -0.577807
     87 C28         1.7030   -3.2090    2.9830 c3        1 MOL      0.020210
     88 C29         1.0690   -3.2610    4.4010 c3        1 MOL      0.292249
     89 C30         2.9280   -2.2290    3.0320 c3        1 MOL     -0.061673
     90 C31         1.9300   -3.9480    5.3170 c3        1 MOL     -0.359256
     91 H36        -0.4150   -4.6360    2.2520 hn        1 MOL      0.312076
     92 H37         0.4830   -1.8730    1.8750 h1        1 MOL      0.158876
     93 H38         2.0670   -4.2060    2.7330 hc        1 MOL      0.024035
     94 H39         0.0740   -3.7120    4.4210 hc        1 MOL     -0.043604
     95 H40         1.0170   -2.2460    4.7690 hc        1 MOL     -0.043604
     96 H41         3.5290   -2.4220    3.9120 hc        1 MOL      0.014241
     97 H42         3.5850   -2.4140    2.1770 hc        1 MOL      0.014241
     98 H43         2.5080   -1.2220    2.9930 hc        1 MOL      0.014241
     99 H44         2.2200   -4.8660    4.8030 hc        1 MOL      0.069433
    100 H45         2.7460   -3.2540    5.5300 hc        1 MOL      0.069433
    101 H46         1.3360   -4.1460    6.2120 hc        1 MOL      0.069433
    102 N10         1.7370   -2.1290   -0.2140 n         1 MOL     -0.101146
    103 C32         2.6580   -2.0690   -1.3410 c3        1 MOL      0.087218
    104 C33         4.0270   -1.4830   -1.0260 c         1 MOL      0.236975
    105 O16         4.2310   -0.8900    0.0550 o         1 MOL     -0.201365
    106 C34         1.9590   -1.3260   -2.5240 c3        1 MOL     -0.209252
    107 C35         0.5430   -1.8440   -2.9110 c         1 MOL      0.659814
    108 O17         0.3630   -2.9120   -3.4890 o         1 MOL     -0.670079
    109 O18        -0.3770   -1.1540   -2.4640 o         1 MOL     -0.670079
    110 H47         1.2640   -1.2800    0.0470 hn        1 MOL      0.094083
    111 H48         2.8140   -3.1120   -1.6220 h1        1 MOL      0.046535
    112 H49         2.6010   -1.3630   -3.4010 hc        1 MOL      0.058749
    113 H50         1.8350   -0.2890   -2.2440 hc        1 MOL      0.058749
    114 N11         5.0710   -1.5340   -1.8600 n         1 MOL     -0.433447
    115 C36         6.3900   -1.1840   -1.3500 c3        1 MOL      0.288723
    116 C37         6.7010    0.3530   -1.0240 c         1 MOL      0.367476
    117 O19         7.4050    0.6120   -0.0300 o         1 MOL     -0.483890
    118 C38         7.4170   -1.7710   -2.3880 c3        1 MOL     -0.381130
    119 C39         8.8830   -1.8070   -1.9140 ca        1 MOL      0.226399
    120 C40         9.8210   -0.8450   -2.4280 ca        1 MOL     -0.297038
    121 C41         9.3600   -2.7330   -0.9410 ca        1 MOL     -0.297038
    122 C42        11.1490   -0.7830   -1.8530 ca        1 MOL      0.004597
    123 C43        10.6590   -2.5910   -0.3210 ca        1 MOL      0.004597
    124 C44        11.5740   -1.6240   -0.8530 ca        1 MOL     -0.225503
    125 H51         4.9990   -2.1160   -2.6790 hn        1 MOL      0.284595
    126 H52         6.4830   -1.7480   -0.4210 h1        1 MOL      0.055853
    127 H53         7.4750   -1.1920   -3.3080 hc        1 MOL      0.110942
    128 H54         7.2110   -2.8170   -2.6230 hc        1 MOL      0.110942
    129 H55         9.5810   -0.1940   -3.2530 ha        1 MOL      0.154397
    130 H56         8.7710   -3.6000   -0.7020 ha        1 MOL      0.154397
    131 H57        11.7780   -0.0030   -2.2480 ha        1 MOL      0.085960
    132 H58        10.9950   -3.3710    0.3380 ha        1 MOL      0.085960
    133 H59        12.5470   -1.5660   -0.3930 ha        1 MOL      0.126893
    134 N12         6.1710    1.3590   -1.7700 n         1 MOL     -0.105015
    135 C45         5.9990    2.7850   -1.3590 c3        1 MOL      0.069806
    136 C46         5.3060    3.0350    0.0260 c         1 MOL      0.281770
    137 O20         5.5300    4.0540    0.6750 o         1 MOL     -0.489058
    138 C47         5.2910    3.4200   -2.4720 c3        1 MOL     -0.041793
    139 C48         5.7590    2.5610   -3.6470 c3        1 MOL      0.002851
    140 C49         5.7840    1.1530   -3.1230 c3        1 MOL      0.089439
    141 H60         7.0200    3.1370   -1.2510 h1        1 MOL      0.040670
    142 H61         4.2250    3.2530   -2.3020 hc        1 MOL      0.043819
    143 H62         5.4840    4.4850   -2.4790 hc        1 MOL      0.043819
    144 H63         5.1580    2.6800   -4.5510 hc        1 MOL     -0.001277
    145 H64         6.7590    2.9590   -3.8340 hc        1 MOL     -0.001277
    146 H65         4.8200    0.6750   -3.2640 h1        1 MOL     -0.009686
    147 H66         6.5200    0.5950   -3.7100 h1        1 MOL     -0.009686
    148 N13         4.5090    2.0500    0.4810 n         1 MOL     -0.058707
    149 C50         3.7240    2.0310    1.7260 c3        1 MOL      0.077903
    150 C51         4.4350    1.4120    2.9070 c         1 MOL      0.353107
    151 O21         4.5850    2.0270    4.0000 o         1 MOL     -0.538556
    152 C52         2.3500    1.4840    1.5390 c3        1 MOL     -0.072696
    153 C53         1.6590    1.9880    0.2650 c3        1 MOL      0.134380
    154 C54         0.3500    1.3990   -0.0730 c         1 MOL      0.504734
    155 O22        -0.4110    1.9120   -0.9500 o         1 MOL     -0.666657
    156 O23        -0.0580    0.3570    0.5600 o         1 MOL     -0.666657
    157 H67         4.4230    1.1940   -0.0410 hn        1 MOL      0.048932
    158 H68         3.5930    3.0710    2.0460 h1        1 MOL      0.054487
    159 H69         1.7650    1.6230    2.4430 hc        1 MOL      0.017507
    160 H70         2.5550    0.4250    1.3360 hc        1 MOL      0.017507
    161 H71         2.2620    1.8610   -0.6420 hc        1 MOL     -0.028338
    162 H72         1.4940    3.0550    0.3540 hc        1 MOL     -0.028338
    163 N14         5.1280    0.3260    2.5410 n         1 MOL      0.054093
    164 C55         6.0530   -0.3560    3.3810 c3        1 MOL     -0.229031
    165 H73         6.9000    0.2960    3.5930 h1        1 MOL      0.077664
    166 H74         5.5630   -0.6300    4.3150 h1        1 MOL      0.077664
    167 H75         6.4050   -1.2570    2.8780 h1        1 MOL      0.077664
    168 H76         4.9990    0.0390    1.5790 hn        1 MOL     -0.043237
    169 Ca1        -2.1590   -0.2370   -1.0000 Ca        1 MOL      1.736283
@<TRIPOS>BOND
     1    1    2 1   
     2    1    4 1   
     3    1    5 1   
     4    1    6 1   
     5    2    3 2   
     6    2    7 1   
     7    7    8 1   
     8    7   15 1   
     9    8    9 1   
    10    8   11 1   
    11    8   16 1   
    12    9   10 2   
    13    9   19 1   
    14   11   12 1   
    15   11   17 1   
    16   11   18 1   
    17   12   13 1   
    18   12   14 1   
    19   19   20 1   
    20   19   24 1   
    21   20   21 1   
    22   20   23 1   
    23   20   25 1   
    24   21   22 2   
    25   21   29 1   
    26   23   26 1   
    27   23   27 1   
    28   23   28 1   
    29   29   30 1   
    30   29   37 1   
    31   30   31 1   
    32   30   33 1   
    33   30   38 1   
    34   31   32 2   
    35   31   41 1   
    36   33   34 1   
    37   33   39 1   
    38   33   40 1   
    39   34   35 1   
    40   34   36 1   
    41   41   42 1   
    42   41   45 1   
    43   42   43 1   
    44   42   46 1   
    45   42   47 1   
    46   43   44 2   
    47   43   48 1   
    48   48   49 1   
    49   48   56 1   
    50   49   50 1   
    51   49   52 1   
    52   49   57 1   
    53   50   51 2   
    54   50   62 1   
    55   52   53 1   
    56   52   58 1   
    57   52   59 1   
    58   53   54 1   
    59   53   55 2   
    60   54   60 1   
    61   54   61 1   
    62   62   63 1   
    63   62   66 1   
    64   63   64 1   
    65   63   67 1   
    66   63   68 1   
    67   64   65 2   
    68   64   69 1   
    69   69   70 1   
    70   69   76 1   
    71   70   71 1   
    72   70   73 1   
    73   70   77 1   
    74   71   72 2   
    75   71   83 1   
    76   73   74 1   
    77   73   75 1   
    78   73   78 1   
    79   74   80 1   
    80   74   81 1   
    81   74   82 1   
    82   75   79 1   
    83   83   84 1   
    84   83   91 1   
    85   84   85 1   
    86   84   87 1   
    87   84   92 1   
    88   85   86 2   
    89   85  102 1   
    90   87   88 1   
    91   87   89 1   
    92   87   93 1   
    93   88   90 1   
    94   88   94 1   
    95   88   95 1   
    96   89   96 1   
    97   89   97 1   
    98   89   98 1   
    99   90   99 1   
   100   90  100 1   
   101   90  101 1   
   102  102  103 1   
   103  102  110 1   
   104  103  104 1   
   105  103  106 1   
   106  103  111 1   
   107  104  105 2   
   108  104  114 1   
   109  106  107 1   
   110  106  112 1   
   111  106  113 1   
   112  107  108 1   
   113  107  109 1   
   114  114  115 1   
   115  114  125 1   
   116  115  116 1   
   117  115  118 1   
   118  115  126 1   
   119  116  117 2   
   120  116  134 1   
   121  118  119 1   
   122  118  127 1   
   123  118  128 1   
   124  119  120 ar  
   125  119  121 ar  
   126  120  122 ar  
   127  120  129 1   
   128  121  123 ar  
   129  121  130 1   
   130  122  124 ar  
   131  122  131 1   
   132  123  124 ar  
   133  123  132 1   
   134  124  133 1   
   135  134  135 1   
   136  134  140 1   
   137  135  136 1   
   138  135  138 1   
   139  135  141 1   
   140  136  137 2   
   141  136  148 1   
   142  138  139 1   
   143  138  142 1   
   144  138  143 1   
   145  139  140 1   
   146  139  144 1   
   147  139  145 1   
   148  140  146 1   
   149  140  147 1   
   150  148  149 1   
   151  148  157 1   
   152  149  150 1   
   153  149  152 1   
   154  149  158 1   
   155  150  151 2   
   156  150  163 1   
   157  152  153 1   
   158  152  159 1   
   159  152  160 1   
   160  153  154 1   
   161  153  161 1   
   162  153  162 1   
   163  154  155 1   
   164  154  156 1   
   165  163  164 1   
   166  163  168 1   
   167  164  165 1   
   168  164  166 1   
   169  164  167 1   
@<TRIPOS>SUBSTRUCTURE
     1 MOL         1 TEMP              0 ****  ****    0 ROOT
