@<TRIPOS>MOLECULE
MOL
  189   185     1     0     0
SMALL
resp


@<TRIPOS>ATOM
      1 C1          0.0240    3.3380    5.5540 c3        1 MOL     -0.498283
      2 C2         -0.2640    2.9240    4.0970 c         1 MOL      0.754535
      3 O1          0.5910    3.1850    3.2710 o         1 MOL     -0.574164
      4 H1          0.3620    4.3730    5.5760 hc        1 MOL      0.122132
      5 H2         -0.8860    3.2400    6.1460 hc        1 MOL      0.122132
      6 H3          0.8000    2.6930    5.9690 hc        1 MOL      0.122132
      7 N1         -1.4400    2.2520    3.9350 n         1 MOL     -0.676652
      8 C3         -2.0650    1.9610    2.6420 c3        1 MOL      0.214319
      9 C4         -2.3820    3.2450    1.8680 c         1 MOL      0.413216
     10 O2         -3.3260    3.8820    2.2080 o         1 MOL     -0.566845
     11 C5         -3.2830    1.0440    2.8050 c3        1 MOL     -0.192345
     12 C6         -3.8320    0.3560    1.5970 c         1 MOL      0.820389
     13 O3         -3.3410    0.6090    0.5220 o         1 MOL     -0.720611
     14 O4         -4.7300   -0.5210    1.6670 o         1 MOL     -0.720611
     15 H4         -1.9070    2.0590    4.8130 hn        1 MOL      0.364345
     16 H5         -1.2970    1.4480    2.0580 h1        1 MOL     -0.025280
     17 H6         -4.0810    1.5950    3.2900 hc        1 MOL      0.046534
     18 H7         -2.9220    0.2810    3.4810 hc        1 MOL      0.046534
     19 N2         -1.6980    3.6380    0.8040 n         1 MOL      0.075828
     20 C7         -1.8360    4.9490    0.1470 c3        1 MOL     -0.074604
     21 C8         -2.7920    5.1040   -1.0130 c         1 MOL      0.539487
     22 O5         -3.0040    6.2210   -1.4760 o         1 MOL     -0.563813
     23 C9         -0.4590    5.3880   -0.2300 c3        1 MOL     -0.208765
     24 C10         0.5740    5.4840    0.9270 c3        1 MOL      0.153996
     25 C11         0.0170    6.2970    2.0980 c3        1 MOL     -0.128251
     26 C12         1.0960    6.4330    3.0810 c3        1 MOL      0.201898
     27 N3          0.6700    7.3980    4.1170 n4        1 MOL     -0.419834
     28 H8         -0.9600    3.0290    0.4920 hn        1 MOL      0.204418
     29 H9         -2.2340    5.6090    0.9070 h1        1 MOL      0.037380
     30 H10        -0.5230    6.3890   -0.6440 hc        1 MOL      0.064901
     31 H11         0.0370    4.7100   -0.9260 hc        1 MOL      0.064901
     32 H12         1.3900    6.0580    0.4930 hc        1 MOL     -0.005478
     33 H13         1.0130    4.4920    1.1020 hc        1 MOL     -0.005478
     34 H14        -0.7730    5.7970    2.6590 hc        1 MOL      0.045770
     35 H15        -0.1970    7.3170    1.7650 hc        1 MOL      0.045770
     36 H16         2.0350    6.7530    2.6320 hx        1 MOL      0.035674
     37 H17         1.3160    5.4920    3.5720 hx        1 MOL      0.035674
     38 H18         0.6010    8.3640    3.8480 hn        1 MOL      0.323305
     39 H19        -0.2440    7.1090    4.4610 hn        1 MOL      0.323305
     40 H20         1.2100    7.4460    4.9680 hn        1 MOL      0.323305
     41 N4         -3.2700    3.9520   -1.4650 n         1 MOL     -0.278968
     42 C13        -4.3010    3.8110   -2.5250 c3        1 MOL      0.093024
     43 C14        -5.4510    2.9280   -2.0510 c         1 MOL      0.445230
     44 O6         -6.5430    2.9870   -2.6640 o         1 MOL     -0.523089
     45 C15        -3.6070    3.2610   -3.8120 c3        1 MOL     -0.245338
     46 C16        -2.5820    2.0350   -3.6060 c         1 MOL      0.849554
     47 O7         -2.5790    1.3220   -2.5740 o         1 MOL     -0.755103
     48 O8         -1.7500    1.7490   -4.4560 o         1 MOL     -0.755103
     49 H21        -3.0470    3.1520   -0.8940 hn        1 MOL     -0.073198
     50 H22        -4.8170    4.7520   -2.6730 h1        1 MOL      0.075302
     51 H23        -3.0970    4.0380   -4.3710 hc        1 MOL      0.058666
     52 H24        -4.3600    2.8700   -4.4860 hc        1 MOL      0.058666
     53 N5         -5.3640    2.1820   -0.9200 n         1 MOL     -0.118980
     54 C17        -6.6060    1.5800   -0.3460 c3        1 MOL     -0.338790
     55 C18        -7.1550    0.3600   -1.0220 c         1 MOL      0.836723
     56 O9         -8.0530    0.4550   -1.8130 o         1 MOL     -0.569791
     57 H25        -4.4250    1.9770   -0.6000 hn        1 MOL      0.236798
     58 H26        -7.4250    2.3030   -0.3740 h1        1 MOL      0.100371
     59 H27        -6.4110    1.3570    0.7000 h1        1 MOL      0.100371
     60 N6         -6.5750   -0.7700   -0.6480 n         1 MOL     -0.646481
     61 C19        -6.7870   -2.1160   -1.1020 c3        1 MOL      0.111848
     62 C20        -6.5680   -3.2380   -0.0060 c         1 MOL      0.513583
     63 O10        -6.8490   -4.3880   -0.2880 o         1 MOL     -0.541989
     64 C21        -5.9440   -2.4510   -2.3580 c3        1 MOL     -0.171210
     65 C22        -4.4640   -1.9710   -2.1010 c         1 MOL      0.527063
     66 O11        -3.8190   -2.4620   -1.0800 o         1 MOL     -0.585369
     67 O12        -3.9030   -1.0980   -2.8170 o         1 MOL     -0.585369
     68 H28        -5.7870   -0.5840   -0.0460 hn        1 MOL      0.247136
     69 H29        -7.8470   -2.2040   -1.3620 h1        1 MOL      0.066578
     70 H30        -6.3560   -1.8940   -3.2110 hc        1 MOL      0.068051
     71 H31        -5.9800   -3.5200   -2.5420 hc        1 MOL      0.068051
     72 N7         -6.2720   -2.8050    1.2050 n         1 MOL     -0.385789
     73 C23        -6.0640   -3.7390    2.3510 c3        1 MOL     -0.074505
     74 C24        -4.6990   -4.5090    2.2020 c         1 MOL      0.426414
     75 O13        -4.5260   -5.5550    2.8590 o         1 MOL     -0.538546
     76 H32        -5.8830   -1.8680    1.2620 hn        1 MOL      0.287735
     77 H33        -6.8990   -4.4300    2.4990 h1        1 MOL      0.104185
     78 H34        -5.9390   -3.2100    3.2970 h1        1 MOL      0.104185
     79 N8         -3.6840   -4.0840    1.3510 n         1 MOL     -0.099302
     80 C25        -2.3730   -4.7430    1.1640 c3        1 MOL     -0.308214
     81 C26        -1.2240   -3.6950    1.2010 c         1 MOL      0.668571
     82 O14        -1.3550   -2.6400    0.5880 o         1 MOL     -0.699373
     83 C27        -2.2890   -5.5570   -0.1430 c3        1 MOL      0.467949
     84 C28        -3.0780   -6.8690   -0.0280 c3        1 MOL     -0.594982
     85 O15        -2.6760   -4.7750   -1.2420 oh        1 MOL     -0.580275
     86 H35        -3.7790   -3.2810    0.7480 hn        1 MOL      0.126577
     87 H36        -2.1970   -5.4650    1.9650 h1        1 MOL      0.117396
     88 H37        -1.2310   -5.7360   -0.3160 h1        1 MOL     -0.021452
     89 H38        -3.2550   -4.0710   -0.9400 ho        1 MOL      0.354690
     90 H39        -2.9970   -7.3590   -0.9930 hc        1 MOL      0.163771
     91 H40        -2.7740   -7.4690    0.8340 hc        1 MOL      0.163771
     92 H41        -4.1290   -6.6000    0.0970 hc        1 MOL      0.163771
     93 N9         -0.1160   -3.9960    1.8690 n         1 MOL     -0.561655
     94 C29         1.0440   -3.0830    1.9400 c3        1 MOL      0.145438
     95 C30         2.2610   -3.4250    1.0240 c         1 MOL      0.489440
     96 O16         2.9110   -4.4690    1.1970 o         1 MOL     -0.547371
     97 C31         1.3610   -2.8440    3.4650 c3        1 MOL      0.000299
     98 C32         0.3240   -1.8420    4.0270 c3        1 MOL      0.046246
     99 C33         2.7770   -2.2840    3.6770 c3        1 MOL     -0.235524
    100 C34         0.4510   -1.6240    5.5520 c3        1 MOL     -0.305253
    101 H42        -0.1030   -4.9150    2.3030 hn        1 MOL      0.317067
    102 H43         0.7740   -2.0500    1.7200 h1        1 MOL      0.035681
    103 H44         1.4070   -3.8530    3.8690 hc        1 MOL      0.048164
    104 H45        -0.6640   -2.2960    3.9130 hc        1 MOL      0.045292
    105 H46         0.3930   -0.8850    3.5030 hc        1 MOL      0.045292
    106 H47         3.5860   -2.9810    3.4320 hc        1 MOL      0.052239
    107 H48         2.9380   -1.5120    2.9240 hc        1 MOL      0.052239
    108 H49         2.8780   -1.7850    4.6460 hc        1 MOL      0.052239
    109 H50         1.2730   -0.9100    5.5990 hc        1 MOL      0.081259
    110 H51        -0.3430   -1.2120    6.1600 hc        1 MOL      0.081259
    111 H52         0.7300   -2.5870    5.9970 hc        1 MOL      0.081259
    112 N10         2.4880   -2.6920   -0.0870 n         1 MOL     -0.070904
    113 C35         3.5780   -2.9850   -0.9820 c3        1 MOL     -0.321599
    114 C36         4.9540   -2.5330   -0.3790 c         1 MOL      0.299039
    115 O17         5.0070   -1.7810    0.6100 o         1 MOL     -0.277379
    116 C37         3.4090   -2.2530   -2.2450 c3        1 MOL      0.403568
    117 C38         2.3490   -3.0110   -3.1530 c3        1 MOL     -0.239661
    118 O18         2.8700   -0.9180   -2.1420 oh        1 MOL     -0.608292
    119 H53         1.9470   -1.8480   -0.1020 hn        1 MOL      0.089570
    120 H54         3.5220   -4.0500   -1.2300 h1        1 MOL      0.156492
    121 H55         4.2930   -2.3780   -2.8570 h1        1 MOL      0.000830
    122 H56         2.1470   -0.9100   -1.5120 ho        1 MOL      0.317745
    123 H57         2.2610   -2.5590   -4.1440 hc        1 MOL      0.056674
    124 H58         2.7530   -4.0230   -3.2240 hc        1 MOL      0.056674
    125 H59         1.4050   -3.0010   -2.6190 hc        1 MOL      0.056674
    126 N11         6.0200   -2.8650   -1.0090 n         1 MOL     -0.226462
    127 C39         7.2900   -2.3260   -0.5700 c3        1 MOL     -0.113133
    128 C40         7.4410   -0.7770   -0.5930 c         1 MOL      0.310217
    129 O19         8.2630   -0.2410    0.1660 o         1 MOL     -0.473003
    130 C41         8.5090   -2.8460   -1.4070 c3        1 MOL      0.423011
    131 C42         8.8280   -4.3180   -1.3660 c3        1 MOL     -0.382784
    132 O20         8.3950   -2.3920   -2.7580 oh        1 MOL     -0.655701
    133 H60         5.9660   -3.4310   -1.8390 hn        1 MOL      0.292909
    134 H61         7.5490   -2.6990    0.4180 h1        1 MOL      0.121100
    135 H62         9.4090   -2.4490   -0.9420 h1        1 MOL      0.016283
    136 H63         9.3210   -2.3340   -3.0200 ho        1 MOL      0.405411
    137 H64         8.9180   -4.6470   -0.3280 hc        1 MOL      0.099073
    138 H65         8.0350   -4.9070   -1.8340 hc        1 MOL      0.099073
    139 H66         9.8220   -4.3750   -1.8100 hc        1 MOL      0.099073
    140 N12         6.7130   -0.0600   -1.4680 n         1 MOL     -0.206324
    141 C43         6.5380    1.4390   -1.4750 c3        1 MOL     -0.161108
    142 C44         5.7630    2.0110   -0.2920 c         1 MOL      0.443161
    143 O21         5.7110    3.2340    0.0030 o         1 MOL     -0.549339
    144 C45         6.0810    2.0880   -2.7710 c3        1 MOL     -0.121553
    145 C46         4.6170    2.0940   -3.0710 c3        1 MOL      0.229542
    146 C47         4.3610    2.5210   -4.5360 c3        1 MOL     -0.294562
    147 C48         2.8430    2.3710   -4.8850 c3        1 MOL      0.277046
    148 N13         2.5490    2.8340   -6.2650 n4        1 MOL     -0.419999
    149 H67         6.1330   -0.6030   -2.0900 hn        1 MOL      0.232720
    150 H68         7.5740    1.7870   -1.4400 h1        1 MOL      0.160638
    151 H69         6.6530    1.5580   -3.5440 hc        1 MOL      0.050283
    152 H70         6.2970    3.1560   -2.8350 hc        1 MOL      0.050283
    153 H71         4.1090    2.7400   -2.3590 hc        1 MOL      0.010296
    154 H72         4.2910    1.0660   -2.9130 hc        1 MOL      0.010296
    155 H73         4.9320    1.8620   -5.1950 hc        1 MOL      0.071865
    156 H74         4.6700    3.5440   -4.7270 hc        1 MOL      0.071865
    157 H75         2.1580    2.9290   -4.2480 hx        1 MOL      0.024708
    158 H76         2.5320    1.3450   -4.7440 hx        1 MOL      0.024708
    159 H77         1.5800    2.7180   -6.5160 hn        1 MOL      0.336364
    160 H78         2.7610    3.8110   -6.3980 hn        1 MOL      0.336364
    161 H79         3.0490    2.2130   -6.8860 hn        1 MOL      0.336364
    162 N14         5.0800    1.1410    0.4030 n         1 MOL     -0.077284
    163 C49         4.1610    1.4510    1.4770 c3        1 MOL     -0.074440
    164 C50         4.8070    1.1890    2.8070 c         1 MOL      0.505346
    165 O22         4.7200    1.9200    3.7680 o         1 MOL     -0.560683
    166 C51         2.8160    0.7520    1.2260 c3        1 MOL      0.044742
    167 C52         2.0290    1.6200    0.1900 c3        1 MOL      0.039178
    168 C53         0.7690    0.7480   -0.0880 c         1 MOL      0.617706
    169 O23         0.8820   -0.4730   -0.3110 o         1 MOL     -0.673056
    170 O24        -0.3150    1.2990   -0.2280 o         1 MOL     -0.673056
    171 H80         5.1900    0.1640    0.1670 hn        1 MOL     -0.007314
    172 H81         3.8970    2.5020    1.5730 h1        1 MOL      0.060242
    173 H82         2.2580    0.5880    2.1540 hc        1 MOL      0.059910
    174 H83         3.1050   -0.2250    0.8350 hc        1 MOL      0.059910
    175 H84         2.5410    1.5870   -0.7790 hc        1 MOL     -0.033650
    176 H85         1.7860    2.6380    0.5010 hc        1 MOL     -0.033650
    177 N15         5.4940    0.0730    2.8310 n         1 MOL     -0.237523
    178 C54         6.0400   -0.5930    4.0820 c3        1 MOL     -0.089711
    179 H86         7.1220   -0.6910    3.9980 h1        1 MOL      0.067977
    180 H87         5.7970    0.0160    4.9530 h1        1 MOL      0.067977
    181 H88         5.5930   -1.5800    4.1930 h1        1 MOL      0.067977
    182 H89         5.4490   -0.5130    2.0180 hn        1 MOL      0.161514
    183 Ca1        -1.8500   -0.6540   -1.1160 Ca        1 MOL      1.767471
    184 O25        -0.0650   -0.1530   -3.4050 oh        1 MOL     -0.769832
    185 H90         0.8740   -0.0180   -3.3800 ho        1 MOL      0.368168
    186 H91        -0.3950    0.5020   -4.0280 ho        1 MOL      0.368168
    187 O26        -1.3580   -2.9530   -2.7750 oh        1 MOL     -0.769832
    188 H92        -1.7390   -3.6260   -2.2110 ho        1 MOL      0.368168
    189 H93        -0.9990   -3.4330   -3.5240 ho        1 MOL      0.368168
@<TRIPOS>BOND
     1    1    2 1   
     2    1    4 1   
     3    1    5 1   
     4    1    6 1   
     5    2    3 2   
     6    2    7 1   
     7    7    8 1   
     8    7   15 1   
     9    8    9 1   
    10    8   11 1   
    11    8   16 1   
    12    9   10 2   
    13    9   19 1   
    14   11   12 1   
    15   11   17 1   
    16   11   18 1   
    17   12   13 1   
    18   12   14 1   
    19   19   20 1   
    20   19   28 1   
    21   20   21 1   
    22   20   23 1   
    23   20   29 1   
    24   21   22 2   
    25   21   41 1   
    26   23   24 1   
    27   23   30 1   
    28   23   31 1   
    29   24   25 1   
    30   24   32 1   
    31   24   33 1   
    32   25   26 1   
    33   25   34 1   
    34   25   35 1   
    35   26   27 1   
    36   26   36 1   
    37   26   37 1   
    38   27   38 1   
    39   27   39 1   
    40   27   40 1   
    41   41   42 1   
    42   41   49 1   
    43   42   43 1   
    44   42   45 1   
    45   42   50 1   
    46   43   44 2   
    47   43   53 1   
    48   45   46 1   
    49   45   51 1   
    50   45   52 1   
    51   46   47 1   
    52   46   48 1   
    53   53   54 1   
    54   53   57 1   
    55   54   55 1   
    56   54   58 1   
    57   54   59 1   
    58   55   56 2   
    59   55   60 1   
    60   60   61 1   
    61   60   68 1   
    62   61   62 1   
    63   61   64 1   
    64   61   69 1   
    65   62   63 2   
    66   62   72 1   
    67   64   65 1   
    68   64   70 1   
    69   64   71 1   
    70   65   66 1   
    71   65   67 1   
    72   72   73 1   
    73   72   76 1   
    74   73   74 1   
    75   73   77 1   
    76   73   78 1   
    77   74   75 2   
    78   74   79 1   
    79   79   80 1   
    80   79   86 1   
    81   80   81 1   
    82   80   83 1   
    83   80   87 1   
    84   81   82 2   
    85   81   93 1   
    86   83   84 1   
    87   83   85 1   
    88   83   88 1   
    89   84   90 1   
    90   84   91 1   
    91   84   92 1   
    92   85   89 1   
    93   93   94 1   
    94   93  101 1   
    95   94   95 1   
    96   94   97 1   
    97   94  102 1   
    98   95   96 2   
    99   95  112 1   
   100   97   98 1   
   101   97   99 1   
   102   97  103 1   
   103   98  100 1   
   104   98  104 1   
   105   98  105 1   
   106   99  106 1   
   107   99  107 1   
   108   99  108 1   
   109  100  109 1   
   110  100  110 1   
   111  100  111 1   
   112  112  113 1   
   113  112  119 1   
   114  113  114 1   
   115  113  116 1   
   116  113  120 1   
   117  114  115 2   
   118  114  126 1   
   119  116  117 1   
   120  116  118 1   
   121  116  121 1   
   122  117  123 1   
   123  117  124 1   
   124  117  125 1   
   125  118  122 1   
   126  126  127 1   
   127  126  133 1   
   128  127  128 1   
   129  127  130 1   
   130  127  134 1   
   131  128  129 2   
   132  128  140 1   
   133  130  131 1   
   134  130  132 1   
   135  130  135 1   
   136  131  137 1   
   137  131  138 1   
   138  131  139 1   
   139  132  136 1   
   140  140  141 1   
   141  140  149 1   
   142  141  142 1   
   143  141  144 1   
   144  141  150 1   
   145  142  143 2   
   146  142  162 1   
   147  144  145 1   
   148  144  151 1   
   149  144  152 1   
   150  145  146 1   
   151  145  153 1   
   152  145  154 1   
   153  146  147 1   
   154  146  155 1   
   155  146  156 1   
   156  147  148 1   
   157  147  157 1   
   158  147  158 1   
   159  148  159 1   
   160  148  160 1   
   161  148  161 1   
   162  162  163 1   
   163  162  171 1   
   164  163  164 1   
   165  163  166 1   
   166  163  172 1   
   167  164  165 2   
   168  164  177 1   
   169  166  167 1   
   170  166  173 1   
   171  166  174 1   
   172  167  168 1   
   173  167  175 1   
   174  167  176 1   
   175  168  169 1   
   176  168  170 1   
   177  177  178 1   
   178  177  182 1   
   179  178  179 1   
   180  178  180 1   
   181  178  181 1   
   182  184  185 1   
   183  184  186 1   
   184  187  188 1   
   185  187  189 1   
@<TRIPOS>SUBSTRUCTURE
     1 MOL         1 TEMP              0 ****  ****    0 ROOT
