@<TRIPOS>MOLECULE
MOL
  178   175     1     0     0
SMALL
resp


@<TRIPOS>ATOM
      1 C1          0.0210   -2.1660    5.7760 c3        1 MOL     -0.423810
      2 C2          0.0560   -1.8120    4.2540 c         1 MOL      0.713144
      3 O1         -0.8080   -2.3220    3.5560 o         1 MOL     -0.530963
      4 H1         -0.8490   -1.7000    6.2370 hc        1 MOL      0.100606
      5 H2         -0.0400   -3.2480    5.8960 hc        1 MOL      0.100606
      6 H3          0.9280   -1.7970    6.2560 hc        1 MOL      0.100606
      7 N1          1.2120   -1.2140    3.8210 n         1 MOL     -0.431080
      8 C3          1.5490   -1.0800    2.4100 c3        1 MOL     -0.063113
      9 C4          1.9290   -2.5500    1.8970 c         1 MOL      0.440407
     10 O2          3.0090   -3.0360    2.2180 o         1 MOL     -0.555416
     11 C5          2.7270   -0.0970    2.2450 c3        1 MOL     -0.094480
     12 C6          3.2890   -0.1030    0.8040 c         1 MOL      0.445400
     13 O3          2.6760   -0.8390   -0.0550 o         1 MOL     -0.413334
     14 O4          4.3260    0.5510    0.5480 o         1 MOL     -0.413334
     15 H4          1.9370   -0.9910    4.4980 hn        1 MOL      0.270173
     16 H5          0.7720   -0.6850    1.7580 h1        1 MOL      0.009255
     17 H6          3.5820   -0.2760    2.8920 hc        1 MOL      0.053375
     18 H7          2.4230    0.9040    2.5330 hc        1 MOL      0.053375
     19 N2          1.1190   -3.1150    1.0330 n         1 MOL     -0.157376
     20 C7          1.2120   -4.4830    0.6400 c3        1 MOL      0.097095
     21 C8          2.4000   -4.7340   -0.3490 c         1 MOL      0.434063
     22 O5          2.7510   -5.9020   -0.5340 o         1 MOL     -0.580014
     23 C9         -0.1350   -5.0620    0.1250 c3        1 MOL     -0.197518
     24 H8          0.5380   -2.4800    0.4910 hn        1 MOL      0.233363
     25 H9          1.3300   -4.9780    1.6010 h1        1 MOL      0.058735
     26 H10         0.1000   -5.9360   -0.4790 hc        1 MOL      0.062137
     27 H11        -0.8140   -5.3390    0.9280 hc        1 MOL      0.062137
     28 H12        -0.5580   -4.2300   -0.4570 hc        1 MOL      0.062137
     29 N3          3.1290   -3.6980   -0.8450 n         1 MOL     -0.032021
     30 C10         4.4380   -3.8940   -1.4710 c3        1 MOL      0.041331
     31 C11         5.6810   -3.4660   -0.5780 c         1 MOL      0.255146
     32 O6          6.8250   -3.6410   -0.9850 o         1 MOL     -0.500192
     33 C12         4.5430   -3.2590   -2.8530 c3        1 MOL     -0.347493
     34 C13         4.2680   -1.7500   -2.9430 c         1 MOL      0.841304
     35 O7          3.1240   -1.4210   -3.2540 o         1 MOL     -0.723077
     36 O8          5.1360   -0.9350   -2.6930 o         1 MOL     -0.723077
     37 H13         2.7970   -2.7630   -0.6800 hn        1 MOL     -0.087344
     38 H14         4.5370   -4.9690   -1.6350 h1        1 MOL      0.110429
     39 H15         3.6960   -3.7560   -3.3240 hc        1 MOL      0.081824
     40 H16         5.4740   -3.4870   -3.3850 hc        1 MOL      0.081824
     41 N4          5.4850   -2.8260    0.5890 n         1 MOL      0.077509
     42 C14         6.5660   -2.6230    1.5530 c3        1 MOL     -0.214116
     43 C15         7.3680   -1.3410    1.4960 c         1 MOL      0.492504
     44 O9          8.3030   -1.2150    2.2840 o         1 MOL     -0.579069
     45 H17         4.5430   -2.7850    0.9460 hn        1 MOL      0.049740
     46 H18         7.3340   -3.3970    1.5140 h1        1 MOL      0.104123
     47 H19         6.1230   -2.6290    2.5530 h1        1 MOL      0.104123
     48 N5          7.0970   -0.4040    0.5600 n         1 MOL      0.024907
     49 C16         7.9640    0.7660    0.3470 c3        1 MOL     -0.229475
     50 C17         7.6680    1.9040    1.3590 c         1 MOL      0.438497
     51 O10         8.5570    2.7150    1.6540 o         1 MOL     -0.543558
     52 C18         7.8190    1.2390   -1.1400 c3        1 MOL      0.019414
     53 C19         8.5320    0.2740   -2.0340 c         1 MOL      0.693450
     54 N6          8.0330   -0.8320   -2.5010 n         1 MOL     -0.776385
     55 O11         9.6450    0.5250   -2.3660 o         1 MOL     -0.641467
     56 H20         6.3760   -0.7200   -0.0700 hn        1 MOL     -0.041764
     57 H21         8.9890    0.4150    0.5270 h1        1 MOL      0.143565
     58 H22         8.3560    2.1530   -1.4090 hc        1 MOL      0.012688
     59 H23         6.7960    1.4100   -1.4780 hc        1 MOL      0.012688
     60 H24         7.0350   -1.0120   -2.4770 hn        1 MOL      0.358173
     61 H25         8.6600   -1.5240   -2.8660 hn        1 MOL      0.358173
     62 N7          6.4410    1.9570    1.8650 n         1 MOL     -0.107591
     63 C20         5.8020    3.0320    2.6770 c3        1 MOL     -0.114622
     64 C21         4.7470    3.8950    1.9210 c         1 MOL      0.599598
     65 O12         4.5620    5.0420    2.3430 o         1 MOL     -0.580202
     66 H26         5.8410    1.1620    1.6870 hn        1 MOL      0.043096
     67 H27         6.5640    3.6970    3.0900 h1        1 MOL      0.075261
     68 H28         5.3710    2.5000    3.5270 h1        1 MOL      0.075261
     69 N8          4.0280    3.3760    0.8960 n         1 MOL     -0.436850
     70 C22         2.7380    4.0260    0.4540 c3        1 MOL     -0.067654
     71 C23         1.5850    2.9900    0.3630 c         1 MOL      0.565122
     72 O13         1.6170    2.0280   -0.3590 o         1 MOL     -0.517766
     73 C24         2.7840    4.8340   -0.8890 c3        1 MOL      0.274380
     74 C25         1.4840    5.5400   -1.0830 c3        1 MOL     -0.145430
     75 O14         3.6920    5.9210   -0.6840 oh        1 MOL     -0.633546
     76 H29         4.3320    2.4860    0.5340 hn        1 MOL      0.196001
     77 H30         2.3230    4.7730    1.1250 h1        1 MOL      0.094213
     78 H31         3.0370    4.2260   -1.7590 h1        1 MOL      0.062044
     79 H32         4.4320    5.6050   -0.1590 ho        1 MOL      0.395195
     80 H33         1.5650    6.1720   -1.9650 hc        1 MOL      0.041591
     81 H34         0.7980    4.7260   -1.3290 hc        1 MOL      0.041591
     82 H35         1.0760    6.1230   -0.2630 hc        1 MOL      0.041591
     83 N9          0.5070    3.3190    1.1340 n         1 MOL     -0.493621
     84 C26        -0.6530    2.4360    1.2330 c3        1 MOL     -0.025616
     85 C27        -1.6810    2.8670    0.1910 c         1 MOL      0.502794
     86 O15        -2.1540    4.0060    0.1920 o         1 MOL     -0.611526
     87 C28        -1.3130    2.4490    2.6620 c3        1 MOL      0.088300
     88 C29        -0.2440    2.1360    3.7380 c3        1 MOL      0.185780
     89 C30        -2.5090    1.4210    2.6240 c3        1 MOL     -0.151298
     90 C31        -0.7910    2.3000    5.1510 c3        1 MOL     -0.194178
     91 H36         0.5440    4.0080    1.8720 hn        1 MOL      0.286465
     92 H37        -0.3720    1.4070    1.0090 h1        1 MOL      0.333639
     93 H38        -1.7370    3.4400    2.8380 hc        1 MOL      0.000094
     94 H39         0.6570    2.6980    3.5090 hc        1 MOL     -0.073324
     95 H40        -0.0350    1.0720    3.6220 hc        1 MOL     -0.073324
     96 H41        -3.2310    1.5280    1.8190 hc        1 MOL      0.024952
     97 H42        -2.1830    0.3830    2.5640 hc        1 MOL      0.024952
     98 H43        -3.1780    1.6110    3.4680 hc        1 MOL      0.024952
     99 H44        -0.7830    3.3560    5.4120 hc        1 MOL      0.029949
    100 H45        -1.7900    1.9330    5.3630 hc        1 MOL      0.029949
    101 H46        -0.0960    1.8600    5.8700 hc        1 MOL      0.029949
    102 N10        -2.1640    1.9190   -0.6030 n         1 MOL     -0.053569
    103 C32        -3.3770    2.0630   -1.4680 c3        1 MOL      0.057376
    104 C33        -4.6560    1.4590   -0.8240 c         1 MOL      0.466285
    105 O16        -4.4710    0.5270   -0.0190 o         1 MOL     -0.311548
    106 C34        -3.1180    1.4260   -2.7820 c3        1 MOL     -0.244834
    107 C35        -1.6510    1.6470   -3.3190 c         1 MOL      0.753484
    108 O17        -0.7480    0.8330   -3.1260 o         1 MOL     -0.729077
    109 O18        -1.4160    2.7270   -3.9690 o         1 MOL     -0.729077
    110 H47        -1.7320    1.0190   -0.4470 hn        1 MOL     -0.171115
    111 H48        -3.5940    3.1020   -1.6940 h1        1 MOL      0.052349
    112 H49        -3.8600    1.7220   -3.5200 hc        1 MOL      0.068444
    113 H50        -3.1670    0.3530   -2.5730 hc        1 MOL      0.068444
    114 N11        -5.8090    1.9760   -1.1450 n         1 MOL     -0.651799
    115 C36        -6.9530    1.5760   -0.3600 c3        1 MOL      0.267712
    116 C37        -7.3200    0.0770   -0.3650 c         1 MOL      0.216459
    117 O19        -7.6780   -0.4080    0.6940 o         1 MOL     -0.425589
    118 C38        -8.2040    2.3890   -0.7340 c3        1 MOL     -0.023792
    119 C39        -9.4540    1.9160   -0.0170 ca        1 MOL     -0.135875
    120 C40        -9.4850    2.1670    1.3760 ca        1 MOL     -0.038954
    121 C41       -10.4620    1.1150   -0.5670 ca        1 MOL     -0.038954
    122 C42       -10.6440    1.8390    2.0950 ca        1 MOL     -0.127985
    123 C43       -11.6630    0.7930    0.1630 ca        1 MOL     -0.127985
    124 C44       -11.7410    1.1230    1.5070 ca        1 MOL     -0.115229
    125 H51        -5.8570    2.7550   -1.7850 hn        1 MOL      0.346779
    126 H52        -6.6070    1.8360    0.6420 h1        1 MOL      0.078622
    127 H53        -8.3510    2.3530   -1.8110 hc        1 MOL      0.044700
    128 H54        -8.0980    3.4590   -0.5630 hc        1 MOL      0.044700
    129 H55        -8.6530    2.6930    1.8280 ha        1 MOL      0.083134
    130 H56       -10.4320    0.9540   -1.6320 ha        1 MOL      0.083134
    131 H57       -10.7400    2.2350    3.1030 ha        1 MOL      0.103335
    132 H58       -12.4620    0.3160   -0.3910 ha        1 MOL      0.103335
    133 H59       -12.5740    0.8340    2.1200 ha        1 MOL      0.115841
    134 N12        -7.1610   -0.6170   -1.4990 n         1 MOL     -0.023918
    135 C45        -7.3440   -2.0930   -1.5030 c3        1 MOL      0.049642
    136 C46        -6.2750   -2.8530   -0.6470 c         1 MOL      0.212275
    137 O20        -6.4600   -4.0040   -0.0940 o         1 MOL     -0.491211
    138 C47        -7.2980   -2.4410   -3.0090 c3        1 MOL      0.032362
    139 C48        -7.7490   -1.1640   -3.7410 c3        1 MOL     -0.148728
    140 C49        -7.0430   -0.1410   -2.8620 c3        1 MOL      0.045731
    141 H60        -8.3440   -2.3700   -1.1620 h1        1 MOL      0.051757
    142 H61        -6.2490   -2.6900   -3.1630 hc        1 MOL      0.020582
    143 H62        -7.9240   -3.2930   -3.2720 hc        1 MOL      0.020582
    144 H63        -7.4420   -1.1380   -4.7890 hc        1 MOL      0.054417
    145 H64        -8.8250   -1.0720   -3.6390 hc        1 MOL      0.054417
    146 H65        -5.9900    0.0050   -3.0960 h1        1 MOL      0.017125
    147 H66        -7.5610    0.8070   -2.9970 h1        1 MOL      0.017125
    148 N13        -5.1270   -2.1990   -0.4760 n         1 MOL     -0.016118
    149 C50        -4.1390   -2.7590    0.4140 c3        1 MOL     -0.146465
    150 C51        -4.5580   -2.6940    1.9000 c         1 MOL      0.497172
    151 O21        -4.3200   -3.6360    2.6330 o         1 MOL     -0.543405
    152 C52        -2.7670   -2.0340    0.1900 c3        1 MOL      0.122364
    153 C53        -2.3020   -2.0770   -1.1990 c3        1 MOL     -0.217441
    154 C54        -0.8560   -1.4740   -1.2940 c         1 MOL      0.837919
    155 O22        -0.5150   -0.5760   -0.5080 o         1 MOL     -0.758276
    156 O23        -0.0710   -1.8920   -2.1260 o         1 MOL     -0.758276
    157 H67        -4.9300   -1.2620   -0.7820 hn        1 MOL      0.111040
    158 H68        -3.9780   -3.7770    0.0750 h1        1 MOL      0.097957
    159 H69        -2.0380   -2.6260    0.7520 hc        1 MOL     -0.012120
    160 H70        -2.8400   -1.0670    0.6830 hc        1 MOL     -0.012120
    161 H71        -3.0250   -1.5820   -1.8380 hc        1 MOL      0.030808
    162 H72        -2.3030   -3.0880   -1.6190 hc        1 MOL      0.030808
    163 N14        -5.2000   -1.6160    2.3380 n         1 MOL     -0.108140
    164 C55        -5.6280   -1.6060    3.7490 c3        1 MOL     -0.197230
    165 H73        -6.4530   -0.9050    3.8730 h1        1 MOL      0.082465
    166 H74        -5.9560   -2.6060    4.0360 h1        1 MOL      0.082465
    167 H75        -4.7940   -1.3010    4.3800 h1        1 MOL      0.082465
    168 H76        -5.3480   -0.8720    1.6760 hn        1 MOL      0.105639
    169 Ca1         1.5270    0.2290   -2.2270 Ca        1 MOL      1.735769
    170 O24         1.4620    2.8580   -3.2280 oh        1 MOL     -0.862547
    171 H77         0.5260    2.9360   -3.4220 ho        1 MOL      0.410123
    172 H78         1.8610    3.6180   -3.6360 ho        1 MOL      0.410123
    173 O25         3.9330    1.4030   -1.9360 oh        1 MOL     -0.862547
    174 H79         4.3980    0.7840   -2.4910 ho        1 MOL      0.410123
    175 H80         4.1650    1.1460   -1.0450 ho        1 MOL      0.410123
    176 O26         1.5940    0.2650   -4.9740 oh        1 MOL     -0.862547
    177 H81         0.8300    0.7890   -5.2070 ho        1 MOL      0.410123
    178 H82         1.9550   -0.0180   -5.8140 ho        1 MOL      0.410123
@<TRIPOS>BOND
     1    1    2 1   
     2    1    4 1   
     3    1    5 1   
     4    1    6 1   
     5    2    3 2   
     6    2    7 1   
     7    7    8 1   
     8    7   15 1   
     9    8    9 1   
    10    8   11 1   
    11    8   16 1   
    12    9   10 2   
    13    9   19 1   
    14   11   12 1   
    15   11   17 1   
    16   11   18 1   
    17   12   13 1   
    18   12   14 1   
    19   19   20 1   
    20   19   24 1   
    21   20   21 1   
    22   20   23 1   
    23   20   25 1   
    24   21   22 2   
    25   21   29 1   
    26   23   26 1   
    27   23   27 1   
    28   23   28 1   
    29   29   30 1   
    30   29   37 1   
    31   30   31 1   
    32   30   33 1   
    33   30   38 1   
    34   31   32 2   
    35   31   41 1   
    36   33   34 1   
    37   33   39 1   
    38   33   40 1   
    39   34   35 1   
    40   34   36 1   
    41   41   42 1   
    42   41   45 1   
    43   42   43 1   
    44   42   46 1   
    45   42   47 1   
    46   43   44 2   
    47   43   48 1   
    48   48   49 1   
    49   48   56 1   
    50   49   50 1   
    51   49   52 1   
    52   49   57 1   
    53   50   51 2   
    54   50   62 1   
    55   52   53 1   
    56   52   58 1   
    57   52   59 1   
    58   53   54 1   
    59   53   55 2   
    60   54   60 1   
    61   54   61 1   
    62   62   63 1   
    63   62   66 1   
    64   63   64 1   
    65   63   67 1   
    66   63   68 1   
    67   64   65 2   
    68   64   69 1   
    69   69   70 1   
    70   69   76 1   
    71   70   71 1   
    72   70   73 1   
    73   70   77 1   
    74   71   72 2   
    75   71   83 1   
    76   73   74 1   
    77   73   75 1   
    78   73   78 1   
    79   74   80 1   
    80   74   81 1   
    81   74   82 1   
    82   75   79 1   
    83   83   84 1   
    84   83   91 1   
    85   84   85 1   
    86   84   87 1   
    87   84   92 1   
    88   85   86 2   
    89   85  102 1   
    90   87   88 1   
    91   87   89 1   
    92   87   93 1   
    93   88   90 1   
    94   88   94 1   
    95   88   95 1   
    96   89   96 1   
    97   89   97 1   
    98   89   98 1   
    99   90   99 1   
   100   90  100 1   
   101   90  101 1   
   102  102  103 1   
   103  102  110 1   
   104  103  104 1   
   105  103  106 1   
   106  103  111 1   
   107  104  105 2   
   108  104  114 1   
   109  106  107 1   
   110  106  112 1   
   111  106  113 1   
   112  107  108 1   
   113  107  109 1   
   114  114  115 1   
   115  114  125 1   
   116  115  116 1   
   117  115  118 1   
   118  115  126 1   
   119  116  117 2   
   120  116  134 1   
   121  118  119 1   
   122  118  127 1   
   123  118  128 1   
   124  119  120 ar  
   125  119  121 ar  
   126  120  122 ar  
   127  120  129 1   
   128  121  123 ar  
   129  121  130 1   
   130  122  124 ar  
   131  122  131 1   
   132  123  124 ar  
   133  123  132 1   
   134  124  133 1   
   135  134  135 1   
   136  134  140 1   
   137  135  136 1   
   138  135  138 1   
   139  135  141 1   
   140  136  137 2   
   141  136  148 1   
   142  138  139 1   
   143  138  142 1   
   144  138  143 1   
   145  139  140 1   
   146  139  144 1   
   147  139  145 1   
   148  140  146 1   
   149  140  147 1   
   150  148  149 1   
   151  148  157 1   
   152  149  150 1   
   153  149  152 1   
   154  149  158 1   
   155  150  151 2   
   156  150  163 1   
   157  152  153 1   
   158  152  159 1   
   159  152  160 1   
   160  153  154 1   
   161  153  161 1   
   162  153  162 1   
   163  154  155 1   
   164  154  156 1   
   165  163  164 1   
   166  163  168 1   
   167  164  165 1   
   168  164  166 1   
   169  164  167 1   
   170  170  171 1   
   171  170  172 1   
   172  173  174 1   
   173  173  175 1   
   174  176  177 1   
   175  176  178 1   
@<TRIPOS>SUBSTRUCTURE
     1 MOL         1 TEMP              0 ****  ****    0 ROOT
