@<TRIPOS>MOLECULE
MOL
  189   185     1     0     0
SMALL
resp


@<TRIPOS>ATOM
      1 C1          0.2950    2.9480    5.4060 c3        1 MOL     -0.367556
      2 C2         -0.0480    2.4400    3.9460 c         1 MOL      0.726855
      3 O1          0.6720    2.6330    2.9740 o         1 MOL     -0.646665
      4 H1         -0.0080    2.1940    6.1330 hc        1 MOL      0.091870
      5 H2          1.3670    3.1210    5.4880 hc        1 MOL      0.091870
      6 H3         -0.2410    3.8770    5.6030 hc        1 MOL      0.091870
      7 N1         -1.1630    1.7760    3.7660 n         1 MOL     -0.416052
      8 C3         -1.7250    1.4350    2.4690 c3        1 MOL      0.050957
      9 C4         -2.2310    2.7510    1.8150 c         1 MOL      0.226663
     10 O2         -3.3600    3.1990    2.1200 o         1 MOL     -0.455659
     11 C5         -2.8830    0.4400    2.5690 c3        1 MOL     -0.262850
     12 C6         -3.7270    0.1810    1.3240 c         1 MOL      0.924161
     13 O3         -4.8660   -0.2670    1.5020 o         1 MOL     -0.729601
     14 O4         -3.2630    0.4150    0.1580 o         1 MOL     -0.729601
     15 H4         -1.7210    1.5390    4.5710 hn        1 MOL      0.280378
     16 H5         -0.9910    0.9910    1.7930 h1        1 MOL      0.047767
     17 H6         -3.6450    0.8430    3.2500 hc        1 MOL      0.065380
     18 H7         -2.4840   -0.5180    2.9100 hc        1 MOL      0.065380
     19 N2         -1.3990    3.3800    0.9630 n         1 MOL     -0.129767
     20 C7         -1.5700    4.7320    0.4240 c3        1 MOL     -0.002531
     21 C8         -2.5870    4.9370   -0.6520 c         1 MOL      0.480158
     22 O5         -3.0090    6.0860   -0.8450 o         1 MOL     -0.568037
     23 C9         -0.1610    5.3220    0.1080 c3        1 MOL      0.037432
     24 C10        -0.0430    6.8110    0.4680 c3        1 MOL     -0.046671
     25 C11        -0.2660    7.2610    1.9070 c3        1 MOL     -0.079107
     26 C12         0.8770    7.0930    2.9180 c3        1 MOL      0.051500
     27 N3          0.4820    7.6150    4.2590 n4        1 MOL     -0.366743
     28 H8         -0.6080    2.8060    0.6940 hn        1 MOL      0.231698
     29 H9         -1.9870    5.3500    1.2100 h1        1 MOL      0.057096
     30 H10         0.2140    5.1000   -0.8940 hc        1 MOL      0.025908
     31 H11         0.5670    4.7920    0.7200 hc        1 MOL      0.025908
     32 H12        -0.6510    7.4130   -0.2130 hc        1 MOL      0.033154
     33 H13         0.9580    7.0680    0.1220 hc        1 MOL      0.033154
     34 H14        -1.1550    6.8140    2.3450 hc        1 MOL      0.050922
     35 H15        -0.5540    8.3130    1.9270 hc        1 MOL      0.050922
     36 H16         1.6660    7.6860    2.4430 hx        1 MOL      0.067974
     37 H17         1.0810    6.0210    2.8910 hx        1 MOL      0.067974
     38 H18         0.1810    8.5750    4.1890 hn        1 MOL      0.332672
     39 H19        -0.2950    7.0920    4.6350 hn        1 MOL      0.332672
     40 H20         1.2980    7.6560    4.8450 hn        1 MOL      0.332672
     41 N4         -3.0320    3.8680   -1.4020 n         1 MOL     -0.272465
     42 C13        -4.1990    3.8610   -2.3130 c3        1 MOL      0.081027
     43 C14        -5.3880    3.0990   -1.7360 c         1 MOL      0.374833
     44 O6         -6.3910    2.9720   -2.3310 o         1 MOL     -0.521682
     45 C15        -3.8720    3.2700   -3.7450 c3        1 MOL     -0.308798
     46 C16        -3.1130    1.9830   -3.8810 c         1 MOL      0.684767
     47 O7         -3.0200    1.5860   -5.0630 o         1 MOL     -0.620232
     48 O8         -2.8470    1.2420   -2.9100 o         1 MOL     -0.620232
     49 H21        -2.6440    2.9850   -1.1100 hn        1 MOL      0.127552
     50 H22        -4.5850    4.8680   -2.4680 h1        1 MOL      0.089345
     51 H23        -3.3310    4.1010   -4.2070 hc        1 MOL      0.089162
     52 H24        -4.8260    3.1630   -4.2730 hc        1 MOL      0.089162
     53 N5         -5.2520    2.4550   -0.5950 n         1 MOL      0.044675
     54 C17        -6.4650    2.0160    0.1260 c3        1 MOL     -0.349888
     55 C18        -7.1390    0.8240   -0.5380 c         1 MOL      0.611977
     56 O9         -8.3660    0.6250   -0.4200 o         1 MOL     -0.585796
     57 H25        -4.3350    2.3590   -0.1640 hn        1 MOL     -0.034098
     58 H26        -7.2210    2.8060    0.1380 h1        1 MOL      0.136822
     59 H27        -6.0870    1.7540    1.1110 h1        1 MOL      0.136822
     60 N6         -6.3890    0.0420   -1.3360 n         1 MOL     -0.371014
     61 C19        -6.7960   -1.3040   -1.8930 c3        1 MOL     -0.130015
     62 C20        -7.0070   -2.4260   -0.8660 c         1 MOL      0.548687
     63 O10        -7.5940   -3.4490   -1.1780 o         1 MOL     -0.558111
     64 C21        -5.8720   -1.8080   -3.0370 c3        1 MOL     -0.158092
     65 C22        -4.3940   -1.9200   -2.6770 c         1 MOL      0.701375
     66 O11        -4.0230   -2.3940   -1.5670 o         1 MOL     -0.674208
     67 O12        -3.6330   -1.5080   -3.4930 o         1 MOL     -0.674208
     68 H28        -5.4830    0.3950   -1.5730 hn        1 MOL      0.348175
     69 H29        -7.7920   -1.1630   -2.3180 h1        1 MOL      0.131855
     70 H30        -6.0160   -1.1260   -3.8800 hc        1 MOL      0.065069
     71 H31        -6.3910   -2.6980   -3.3740 hc        1 MOL      0.065069
     72 N7         -6.6730   -2.1650    0.4210 n         1 MOL     -0.387703
     73 C23        -6.7980   -3.1250    1.5500 c3        1 MOL     -0.071169
     74 C24        -5.4880   -3.8490    1.8700 c         1 MOL      0.436405
     75 O13        -5.5310   -4.7450    2.7300 o         1 MOL     -0.580661
     76 H32        -6.0020   -1.4250    0.5740 hn        1 MOL      0.335852
     77 H33        -7.5070   -3.9160    1.2820 h1        1 MOL      0.101293
     78 H34        -7.2130   -2.6490    2.4330 h1        1 MOL      0.101293
     79 N8         -4.3450   -3.5440    1.2360 n         1 MOL     -0.022452
     80 C25        -3.0530   -4.3010    1.3890 c3        1 MOL     -0.186889
     81 C26        -1.8190   -3.4220    1.4130 c         1 MOL      0.658352
     82 O14        -1.8110   -2.2670    0.8660 o         1 MOL     -0.624905
     83 C27        -2.9240   -5.3090    0.2470 c3        1 MOL      0.498640
     84 C28        -3.9940   -6.3750    0.1540 c3        1 MOL     -0.340502
     85 O15        -2.9520   -4.7590   -1.0250 oh        1 MOL     -0.703223
     86 H35        -4.3030   -2.7250    0.6470 hn        1 MOL     -0.008915
     87 H36        -2.9990   -4.8810    2.3120 h1        1 MOL      0.074493
     88 H37        -1.9870   -5.8230    0.4540 h1        1 MOL     -0.040475
     89 H38        -3.4980   -3.9690   -1.0940 ho        1 MOL      0.403323
     90 H39        -4.0750   -6.8810   -0.8140 hc        1 MOL      0.085183
     91 H40        -3.8310   -7.1530    0.8980 hc        1 MOL      0.085183
     92 H41        -4.9130   -5.8490    0.3990 hc        1 MOL      0.085183
     93 N9         -0.6810   -3.9360    1.9710 n         1 MOL     -0.616386
     94 C29         0.5570   -3.1240    1.9920 c3        1 MOL      0.049567
     95 C30         1.6100   -3.6880    1.0770 c         1 MOL      0.558794
     96 O16         1.7710   -4.9110    1.0980 o         1 MOL     -0.597071
     97 C31         1.1840   -2.9240    3.4360 c3        1 MOL      0.065330
     98 C32         0.2040   -2.0380    4.2840 c3        1 MOL      0.139022
     99 C33         2.5770   -2.2810    3.5070 c3        1 MOL     -0.154235
    100 C34         0.5370   -1.8660    5.7320 c3        1 MOL     -0.180533
    101 H42        -0.7160   -4.8260    2.4470 hn        1 MOL      0.345549
    102 H43         0.3440   -2.1130    1.6540 h1        1 MOL      0.129653
    103 H44         1.2410   -3.9070    3.9130 hc        1 MOL      0.016661
    104 H45        -0.7470   -2.5740    4.3000 hc        1 MOL     -0.020089
    105 H46         0.1770   -0.9940    3.9710 hc        1 MOL     -0.020089
    106 H47         2.5410   -1.2320    3.2040 hc        1 MOL      0.014285
    107 H48         3.0590   -2.3490    4.4790 hc        1 MOL      0.014285
    108 H49         3.1940   -2.8540    2.8060 hc        1 MOL      0.014285
    109 H50        -0.1800   -1.1720    6.1780 hc        1 MOL      0.035809
    110 H51         0.5300   -2.8430    6.2280 hc        1 MOL      0.035809
    111 H52         1.5070   -1.3970    5.8750 hc        1 MOL      0.035809
    112 N10         2.3110   -2.8960    0.3080 n         1 MOL      0.108464
    113 C35         3.3280   -3.2150   -0.6960 c3        1 MOL     -0.077886
    114 C36         4.6690   -2.9820   -0.1250 c         1 MOL      0.269246
    115 O17         4.9220   -2.5440    0.9810 o         1 MOL     -0.366592
    116 C37         3.1480   -2.3270   -1.9670 c3        1 MOL      0.244933
    117 C38         1.9660   -2.8170   -2.6700 c3        1 MOL     -0.135173
    118 O18         2.9830   -0.9380   -1.7950 oh        1 MOL     -0.640185
    119 H53         1.9930   -1.9350    0.3690 hn        1 MOL     -0.191489
    120 H54         3.2560   -4.2720   -0.9360 h1        1 MOL      0.082283
    121 H55         4.0030   -2.4290   -2.6330 h1        1 MOL      0.037894
    122 H56         2.1100   -0.7570   -1.4500 ho        1 MOL      0.453358
    123 H57         1.3340   -3.3760   -1.9880 hc        1 MOL      0.019016
    124 H58         1.3370   -2.0620   -3.1480 hc        1 MOL      0.019016
    125 H59         2.2820   -3.4720   -3.4810 hc        1 MOL      0.019016
    126 N11         5.7100   -3.1430   -0.9060 n         1 MOL     -0.129078
    127 C39         7.1170   -2.7930   -0.4890 c3        1 MOL     -0.160866
    128 C40         7.4070   -1.3120   -0.4110 c         1 MOL      0.322492
    129 O19         8.1010   -0.9290    0.5080 o         1 MOL     -0.473403
    130 C41         8.1860   -3.3940   -1.3800 c3        1 MOL      0.198793
    131 C42         8.4200   -4.9020   -1.2870 c3        1 MOL     -0.328476
    132 O20         7.8580   -3.1580   -2.7760 oh        1 MOL     -0.658751
    133 H60         5.6040   -3.5970   -1.7990 hn        1 MOL      0.215381
    134 H61         7.2240   -3.2110    0.5150 h1        1 MOL      0.158486
    135 H62         9.1510   -2.9130   -1.2490 h1        1 MOL      0.097648
    136 H63         8.3940   -3.8180   -3.2150 ho        1 MOL      0.417987
    137 H64         9.2850   -5.2050   -1.8690 hc        1 MOL      0.099347
    138 H65         8.7120   -5.1340   -0.2640 hc        1 MOL      0.099347
    139 H66         7.5200   -5.4510   -1.5820 hc        1 MOL      0.099347
    140 N12         6.8700   -0.4550   -1.2730 n         1 MOL     -0.064142
    141 C43         6.8920    1.0150   -1.1320 c3        1 MOL     -0.223704
    142 C44         6.0650    1.5970    0.0020 c         1 MOL      0.366783
    143 O21         6.6180    2.4510    0.7060 o         1 MOL     -0.479815
    144 C45         6.4890    1.5970   -2.4570 c3        1 MOL     -0.079601
    145 C46         6.7960    3.1250   -2.5750 c3        1 MOL      0.111445
    146 C47         5.8510    3.8280   -3.5180 c3        1 MOL      0.054391
    147 C48         5.6540    3.2310   -4.9280 c3        1 MOL     -0.093413
    148 N13         6.9590    3.0800   -5.7010 n4        1 MOL     -0.251230
    149 H67         6.4520   -0.9180   -2.0640 hn        1 MOL      0.195134
    150 H68         7.9510    1.1830   -0.9150 h1        1 MOL      0.148886
    151 H69         5.4180    1.4360   -2.5740 hc        1 MOL      0.023653
    152 H70         7.0490    0.9920   -3.1740 hc        1 MOL      0.023653
    153 H71         7.7880    3.3030   -2.9720 hc        1 MOL     -0.006406
    154 H72         6.7360    3.7270   -1.6680 hc        1 MOL     -0.006406
    155 H73         6.2180    4.8580   -3.5590 hc        1 MOL      0.028923
    156 H74         4.8750    3.9010   -3.0600 hc        1 MOL      0.028923
    157 H75         5.0320    3.9460   -5.4520 hx        1 MOL      0.114514
    158 H76         5.1430    2.2680   -4.9250 hx        1 MOL      0.114514
    159 H77         7.6360    2.3600   -5.4900 hn        1 MOL      0.256327
    160 H78         6.6950    2.6410   -6.5750 hn        1 MOL      0.256327
    161 H79         7.3960    3.9800   -5.8580 hn        1 MOL      0.256327
    162 N14         4.9880    0.8750    0.3920 n         1 MOL      0.001616
    163 C49         4.2000    1.2670    1.5380 c3        1 MOL     -0.112328
    164 C50         4.8460    0.7460    2.8640 c         1 MOL      0.421134
    165 O22         4.8400    1.4880    3.8550 o         1 MOL     -0.549157
    166 C51         2.6880    0.8440    1.3310 c3        1 MOL      0.210782
    167 C52         1.9840    1.5220    0.1080 c3        1 MOL     -0.271886
    168 C53         0.7290    0.7470   -0.4010 c         1 MOL      0.861439
    169 O23        -0.2390    1.4340   -0.7280 o         1 MOL     -0.755646
    170 O24         0.6700   -0.4820   -0.3890 o         1 MOL     -0.755646
    171 H80         4.7760   -0.0150   -0.0470 hn        1 MOL      0.070603
    172 H81         4.2970    2.3470    1.6940 h1        1 MOL      0.066339
    173 H82         2.0770    1.0850    2.2020 hc        1 MOL      0.020942
    174 H83         2.7620   -0.2390    1.2050 hc        1 MOL      0.020942
    175 H84         2.7100    1.6440   -0.6950 hc        1 MOL      0.037019
    176 H85         1.7770    2.5430    0.4330 hc        1 MOL      0.037019
    177 N15         5.4060   -0.4850    2.8540 n         1 MOL     -0.003598
    178 C54         6.2900   -0.9290    3.9280 c3        1 MOL     -0.323918
    179 H86         5.7090   -1.0760    4.8390 h1        1 MOL      0.116151
    180 H87         6.7650   -1.8690    3.6450 h1        1 MOL      0.116151
    181 H88         7.0550   -0.1730    4.1050 h1        1 MOL      0.116151
    182 H89         5.2440   -1.0390    2.0230 hn        1 MOL      0.105284
    183 Ca1        -1.7310   -0.7750   -1.5650 Ca        1 MOL      1.764415
    184 O25        -0.1860   -0.1570   -3.9390 oh        1 MOL     -0.858212
    185 H90        -0.7440   -0.5270   -4.6280 ho        1 MOL      0.415239
    186 H91         0.6500    0.0080   -4.3640 ho        1 MOL      0.415239
    187 O26        -1.1110   -3.1970   -2.6550 oh        1 MOL     -0.858212
    188 H92        -0.6460   -3.6410   -3.3710 ho        1 MOL      0.415239
    189 H93        -1.7360   -3.8570   -2.3450 ho        1 MOL      0.415239
@<TRIPOS>BOND
     1    1    2 1   
     2    1    4 1   
     3    1    5 1   
     4    1    6 1   
     5    2    3 2   
     6    2    7 1   
     7    7    8 1   
     8    7   15 1   
     9    8    9 1   
    10    8   11 1   
    11    8   16 1   
    12    9   10 2   
    13    9   19 1   
    14   11   12 1   
    15   11   17 1   
    16   11   18 1   
    17   12   13 1   
    18   12   14 1   
    19   19   20 1   
    20   19   28 1   
    21   20   21 1   
    22   20   23 1   
    23   20   29 1   
    24   21   22 2   
    25   21   41 1   
    26   23   24 1   
    27   23   30 1   
    28   23   31 1   
    29   24   25 1   
    30   24   32 1   
    31   24   33 1   
    32   25   26 1   
    33   25   34 1   
    34   25   35 1   
    35   26   27 1   
    36   26   36 1   
    37   26   37 1   
    38   27   38 1   
    39   27   39 1   
    40   27   40 1   
    41   41   42 1   
    42   41   49 1   
    43   42   43 1   
    44   42   45 1   
    45   42   50 1   
    46   43   44 2   
    47   43   53 1   
    48   45   46 1   
    49   45   51 1   
    50   45   52 1   
    51   46   47 1   
    52   46   48 1   
    53   53   54 1   
    54   53   57 1   
    55   54   55 1   
    56   54   58 1   
    57   54   59 1   
    58   55   56 2   
    59   55   60 1   
    60   60   61 1   
    61   60   68 1   
    62   61   62 1   
    63   61   64 1   
    64   61   69 1   
    65   62   63 2   
    66   62   72 1   
    67   64   65 1   
    68   64   70 1   
    69   64   71 1   
    70   65   66 1   
    71   65   67 1   
    72   72   73 1   
    73   72   76 1   
    74   73   74 1   
    75   73   77 1   
    76   73   78 1   
    77   74   75 2   
    78   74   79 1   
    79   79   80 1   
    80   79   86 1   
    81   80   81 1   
    82   80   83 1   
    83   80   87 1   
    84   81   82 2   
    85   81   93 1   
    86   83   84 1   
    87   83   85 1   
    88   83   88 1   
    89   84   90 1   
    90   84   91 1   
    91   84   92 1   
    92   85   89 1   
    93   93   94 1   
    94   93  101 1   
    95   94   95 1   
    96   94   97 1   
    97   94  102 1   
    98   95   96 2   
    99   95  112 1   
   100   97   98 1   
   101   97   99 1   
   102   97  103 1   
   103   98  100 1   
   104   98  104 1   
   105   98  105 1   
   106   99  106 1   
   107   99  107 1   
   108   99  108 1   
   109  100  109 1   
   110  100  110 1   
   111  100  111 1   
   112  112  113 1   
   113  112  119 1   
   114  113  114 1   
   115  113  116 1   
   116  113  120 1   
   117  114  115 2   
   118  114  126 1   
   119  116  117 1   
   120  116  118 1   
   121  116  121 1   
   122  117  123 1   
   123  117  124 1   
   124  117  125 1   
   125  118  122 1   
   126  126  127 1   
   127  126  133 1   
   128  127  128 1   
   129  127  130 1   
   130  127  134 1   
   131  128  129 2   
   132  128  140 1   
   133  130  131 1   
   134  130  132 1   
   135  130  135 1   
   136  131  137 1   
   137  131  138 1   
   138  131  139 1   
   139  132  136 1   
   140  140  141 1   
   141  140  149 1   
   142  141  142 1   
   143  141  144 1   
   144  141  150 1   
   145  142  143 2   
   146  142  162 1   
   147  144  145 1   
   148  144  151 1   
   149  144  152 1   
   150  145  146 1   
   151  145  153 1   
   152  145  154 1   
   153  146  147 1   
   154  146  155 1   
   155  146  156 1   
   156  147  148 1   
   157  147  157 1   
   158  147  158 1   
   159  148  159 1   
   160  148  160 1   
   161  148  161 1   
   162  162  163 1   
   163  162  171 1   
   164  163  164 1   
   165  163  166 1   
   166  163  172 1   
   167  164  165 2   
   168  164  177 1   
   169  166  167 1   
   170  166  173 1   
   171  166  174 1   
   172  167  168 1   
   173  167  175 1   
   174  167  176 1   
   175  168  169 1   
   176  168  170 1   
   177  177  178 1   
   178  177  182 1   
   179  178  179 1   
   180  178  180 1   
   181  178  181 1   
   182  184  185 1   
   183  184  186 1   
   184  187  188 1   
   185  187  189 1   
@<TRIPOS>SUBSTRUCTURE
     1 MOL         1 TEMP              0 ****  ****    0 ROOT
