@<TRIPOS>MOLECULE
MOL
  186   183     1     0     0
SMALL
resp


@<TRIPOS>ATOM
      1 C1          0.9150   -2.7700    6.2350 c3        1 MOL     -0.268359
      2 C2          1.1870   -2.6320    4.7350 c         1 MOL      0.778646
      3 O1          0.3080   -2.9030    3.9350 o         1 MOL     -0.612567
      4 H1          1.7680   -2.3880    6.7950 hc        1 MOL      0.056293
      5 H2          0.0240   -2.1980    6.4980 hc        1 MOL      0.056293
      6 H3          0.7600   -3.8200    6.4820 hc        1 MOL      0.056293
      7 N1          2.3550   -2.0950    4.3280 n         1 MOL     -0.676844
      8 C3          2.7340   -1.9220    2.8990 c3        1 MOL     -0.033135
      9 C4          3.2190   -3.3360    2.3820 c         1 MOL      0.536794
     10 O2          4.0790   -4.1010    2.9070 o         1 MOL     -0.575786
     11 C5          3.7880   -0.8780    2.8460 c3        1 MOL     -0.216588
     12 C6          4.3660   -0.8730    1.4440 c         1 MOL      0.699590
     13 O3          3.5970   -1.1530    0.4750 o         1 MOL     -0.681394
     14 O4          5.5720   -0.4530    1.2700 o         1 MOL     -0.681394
     15 H4          2.9850   -1.8620    5.0830 hn        1 MOL      0.349618
     16 H5          1.8740   -1.4790    2.4170 h1        1 MOL      0.123760
     17 H6          4.6270   -1.0070    3.5170 hc        1 MOL      0.074933
     18 H7          3.3380    0.0480    3.1870 hc        1 MOL      0.074933
     19 N2          2.5100   -3.7670    1.3680 n         1 MOL     -0.240564
     20 C7          2.5290   -5.0910    0.7750 c3        1 MOL     -0.079075
     21 C8          3.4990   -5.1290   -0.4290 c         1 MOL      0.519425
     22 O5          4.2520   -6.1190   -0.5000 o         1 MOL     -0.591432
     23 C9          1.0930   -5.5160    0.3100 c3        1 MOL      0.237310
     24 C10         0.1690   -5.6030    1.5440 c3        1 MOL      0.126870
     25 C11         1.1250   -6.8090   -0.4610 c3        1 MOL     -0.264030
     26 C12        -1.2840   -6.1840    1.4210 c3        1 MOL     -0.068618
     27 H8          1.9250   -3.0770    0.9110 hn        1 MOL      0.235153
     28 H9          2.8630   -5.8720    1.4520 h1        1 MOL      0.082486
     29 H10         0.6900   -4.7330   -0.3340 hc        1 MOL     -0.020167
     30 H11         0.0390   -4.5580    1.8170 hc        1 MOL     -0.038574
     31 H12         0.7470   -6.0760    2.3480 hc        1 MOL     -0.038574
     32 H13         0.1140   -7.0400   -0.7940 hc        1 MOL      0.040072
     33 H14         1.7380   -6.6240   -1.3520 hc        1 MOL      0.040072
     34 H15         1.5230   -7.6160    0.1490 hc        1 MOL      0.040072
     35 H16        -1.1350   -7.2610    1.4050 hc        1 MOL      0.003140
     36 H17        -1.8640   -5.9790    2.3280 hc        1 MOL      0.003140
     37 H18        -1.8310   -5.8540    0.5440 hc        1 MOL      0.003140
     38 N3          3.6550   -4.0660   -1.2380 n         1 MOL     -0.388893
     39 C13         4.5220   -3.9880   -2.4700 c3        1 MOL      0.236529
     40 C14         5.8120   -3.2310   -2.2540 c         1 MOL      0.391704
     41 O6          6.7570   -3.2930   -3.0240 o         1 MOL     -0.560523
     42 C15         3.7260   -3.5690   -3.7280 c3        1 MOL     -0.263730
     43 C16         3.2670   -2.1530   -3.7380 c         1 MOL      0.815741
     44 O7          2.6390   -1.7110   -4.7370 o         1 MOL     -0.711350
     45 O8          3.4440   -1.5140   -2.6790 o         1 MOL     -0.711350
     46 H19         3.0930   -3.2410   -1.0590 hn        1 MOL      0.200828
     47 H20         4.8340   -5.0090   -2.6980 h1        1 MOL      0.036587
     48 H21         2.9630   -4.3090   -3.9560 hc        1 MOL      0.053229
     49 H22         4.3610   -3.6680   -4.6120 hc        1 MOL      0.053229
     50 N4          5.9680   -2.4920   -1.1180 n         1 MOL     -0.197679
     51 C17         7.3370   -2.2140   -0.5810 c3        1 MOL     -0.114801
     52 C18         7.8020   -0.7450   -0.9490 c         1 MOL      0.575491
     53 O9          8.9190   -0.4290   -0.8820 o         1 MOL     -0.605634
     54 H23         5.2160   -2.3550   -0.4660 hn        1 MOL      0.205102
     55 H24         8.1120   -2.9460   -0.8170 h1        1 MOL      0.074858
     56 H25         7.2910   -2.2590    0.5070 h1        1 MOL      0.074858
     57 N5          6.8750    0.0710   -1.4840 n         1 MOL     -0.261186
     58 C19         7.1110    1.4580   -1.8540 c3        1 MOL      0.005719
     59 C20         7.1610    2.4460   -0.6250 c         1 MOL      0.402267
     60 O10         7.3860    3.6850   -0.8150 o         1 MOL     -0.557015
     61 C21         6.1220    1.9060   -2.9260 c3        1 MOL     -0.371891
     62 C22         4.6340    1.8240   -2.4460 c         1 MOL      0.818377
     63 O11         4.3430    1.7340   -1.2120 o         1 MOL     -0.754634
     64 O12         3.7320    1.6150   -3.2660 o         1 MOL     -0.754634
     65 H26         5.9360   -0.2750   -1.3720 hn        1 MOL      0.174122
     66 H27         8.0890    1.4860   -2.3290 h1        1 MOL      0.105498
     67 H28         6.1860    1.2880   -3.8210 hc        1 MOL      0.099115
     68 H29         6.2300    2.9710   -3.1160 hc        1 MOL      0.099115
     69 N6          6.9700    1.9280    0.6110 n         1 MOL     -0.253012
     70 C23         6.8250    2.7270    1.8510 c3        1 MOL     -0.174115
     71 C24         5.6790    3.7760    1.9080 c         1 MOL      0.596763
     72 O13         5.7420    4.5290    2.9080 o         1 MOL     -0.602278
     73 H30         6.6340    0.9800    0.7080 hn        1 MOL      0.260523
     74 H31         7.7150    3.3080    2.0900 h1        1 MOL      0.090360
     75 H32         6.6260    2.0200    2.6650 h1        1 MOL      0.090360
     76 N7          4.6750    3.6490    1.0440 n         1 MOL     -0.501645
     77 C25         3.2990    4.1750    1.2150 c3        1 MOL      0.063946
     78 C26         2.3210    2.9820    1.3440 c         1 MOL      0.776775
     79 O14         2.4280    1.9160    0.7340 o         1 MOL     -0.715274
     80 C27         2.8570    5.2170    0.1970 c3        1 MOL      0.039275
     81 C28         3.6740    6.4780    0.4600 c3        1 MOL     -0.244858
     82 C29         3.2050    7.6480   -0.3770 c         1 MOL      0.655869
     83 N8          3.8150    7.7670   -1.5500 n         1 MOL     -0.809037
     84 O15         2.4490    8.4930    0.1080 o         1 MOL     -0.580289
     85 H33         4.7820    2.9100    0.3620 hn        1 MOL      0.372186
     86 H34         3.3030    4.6190    2.2120 h1        1 MOL      0.048879
     87 H35         1.7960    5.4570    0.2700 hc        1 MOL      0.029833
     88 H36         3.0570    4.8230   -0.8030 hc        1 MOL      0.029833
     89 H37         4.7150    6.2960    0.2030 hc        1 MOL      0.083052
     90 H38         3.6700    6.6550    1.5290 hc        1 MOL      0.083052
     91 H39         4.4350    7.0270   -1.8610 hn        1 MOL      0.366434
     92 H40         3.6310    8.5610   -2.1320 hn        1 MOL      0.366434
     93 N9          1.2550    3.2420    2.1290 n         1 MOL     -0.728701
     94 C30         0.0530    2.3850    2.1370 c3        1 MOL      0.329427
     95 C31        -0.9570    2.9410    1.2330 c         1 MOL      0.360132
     96 O16        -1.3410    4.1280    1.3060 o         1 MOL     -0.591899
     97 C32        -0.4670    2.2250    3.5830 c3        1 MOL      0.017125
     98 C33        -1.8150    1.5750    3.6590 c3        1 MOL     -0.189943
     99 C34         0.4750    1.3580    4.4540 c3        1 MOL     -0.189943
    100 H41         1.1920    4.1010    2.6450 hn        1 MOL      0.324516
    101 H42         0.3050    1.3660    1.8410 h1        1 MOL      0.096772
    102 H43        -0.4710    3.2480    3.9590 hc        1 MOL      0.012270
    103 H44        -2.6250    2.2540    3.3920 hc        1 MOL      0.043769
    104 H45        -1.8480    0.6470    3.0960 hc        1 MOL      0.043769
    105 H46        -1.9930    1.1770    4.6600 hc        1 MOL      0.043769
    106 H47         1.4790    1.7860    4.4720 hc        1 MOL      0.043769
    107 H48         0.2690    1.3540    5.5250 hc        1 MOL      0.043769
    108 H49         0.5030    0.3150    4.1440 hc        1 MOL      0.043769
    109 N10        -1.5170    2.0840    0.4220 n         1 MOL      0.022263
    110 C35        -2.6250    2.3790   -0.4960 c3        1 MOL      0.044225
    111 C36        -4.0220    2.1630    0.1920 c         1 MOL      0.274519
    112 O17        -4.0360    1.3570    1.1560 o         1 MOL     -0.298890
    113 C37        -2.4600    1.6120   -1.8230 c3        1 MOL     -0.322529
    114 C38        -3.5270    1.9620   -2.8560 c         1 MOL      0.664527
    115 N11        -3.4780    3.1500   -3.4090 n         1 MOL     -0.768024
    116 O18        -4.4790    1.2240   -3.1560 o         1 MOL     -0.519689
    117 H50        -1.0060    1.2240    0.2700 hn        1 MOL      0.085411
    118 H51        -2.5180    3.4460   -0.7060 h1        1 MOL      0.029870
    119 H52        -2.5940    0.5350   -1.6840 hc        1 MOL      0.099764
    120 H53        -1.5050    1.8420   -2.2870 hc        1 MOL      0.099764
    121 H54        -2.8210    3.8540   -3.1010 hn        1 MOL      0.356380
    122 H55        -4.1140    3.3080   -4.1770 hn        1 MOL      0.356380
    123 N12        -5.2310    2.6080   -0.2940 n         1 MOL     -0.356339
    124 C39        -6.4440    2.0590    0.3270 c3        1 MOL      0.203686
    125 C40        -6.6470    0.5400    0.1490 c         1 MOL      0.621517
    126 O19        -6.9010   -0.1620    1.1190 o         1 MOL     -0.549971
    127 C41        -7.5990    2.8960   -0.1330 c3        1 MOL     -0.336468
    128 C42        -8.8810    2.2260    0.1380 ca        1 MOL      0.039275
    129 C43        -9.4000    2.2200    1.4560 ca        1 MOL     -0.133266
    130 C44        -9.5980    1.6300   -0.8700 ca        1 MOL     -0.133266
    131 C45       -10.7000    1.6980    1.7610 ca        1 MOL     -0.348768
    132 C46       -10.8880    1.0610   -0.5520 ca        1 MOL     -0.348768
    133 C47       -11.3940    1.1190    0.7640 ca        1 MOL      0.463557
    134 O20       -12.5770    0.5840    1.0210 oh        1 MOL     -0.531274
    135 H56        -5.3210    3.2530   -1.0630 hn        1 MOL      0.229211
    136 H57        -6.3260    2.2440    1.3920 h1        1 MOL      0.026539
    137 H58        -7.4630    3.0500   -1.1990 hc        1 MOL      0.101197
    138 H59        -7.4320    3.7810    0.4780 hc        1 MOL      0.101197
    139 H60        -8.8970    2.6980    2.2950 ha        1 MOL      0.142427
    140 H61        -9.1660    1.5530   -1.8520 ha        1 MOL      0.142427
    141 H62       -11.0440    1.6300    2.7790 ha        1 MOL      0.163738
    142 H63       -11.5300    0.6360   -1.3060 ha        1 MOL      0.163738
    143 H64       -13.0680    0.3570    0.2200 ho        1 MOL      0.364631
    144 N13        -6.2840    0.0400   -1.0350 n         1 MOL     -0.310812
    145 C48        -6.4290   -1.4530   -1.2320 c3        1 MOL     -0.140348
    146 C49        -5.5160   -2.3330   -0.3520 c         1 MOL      0.336650
    147 O21        -5.8250   -3.5410   -0.0630 o         1 MOL     -0.521861
    148 C50        -6.2020   -1.7700   -2.7370 c3        1 MOL      0.116418
    149 C51        -7.3070   -1.2140   -3.5750 c3        1 MOL     -0.035906
    150 C52        -7.1700   -1.5990   -5.0360 c         1 MOL      0.650867
    151 O22        -6.9300   -0.7300   -5.9080 o         1 MOL     -0.732404
    152 O23        -7.2480   -2.8380   -5.2580 o         1 MOL     -0.732404
    153 H65        -6.1680    0.6710   -1.8060 hn        1 MOL      0.249673
    154 H66        -7.4520   -1.7850   -1.0120 h1        1 MOL      0.116368
    155 H67        -6.1940   -2.8540   -2.8480 hc        1 MOL      0.004699
    156 H68        -5.2270   -1.3700   -3.0450 hc        1 MOL      0.004699
    157 H69        -7.3890   -0.1280   -3.5200 hc        1 MOL     -0.047711
    158 H70        -8.2650   -1.6060   -3.2360 hc        1 MOL     -0.047711
    159 N14        -4.5150   -1.7160    0.2520 n         1 MOL     -0.066352
    160 C53        -3.5670   -2.4230    1.2070 c3        1 MOL     -0.009526
    161 C54        -3.9800   -2.1750    2.6790 c         1 MOL      0.411047
    162 O24        -3.8340   -3.1160    3.4630 o         1 MOL     -0.557315
    163 C55        -2.1800   -1.7840    1.0770 c3        1 MOL      0.223130
    164 C56        -1.3390   -2.0680   -0.2180 c3        1 MOL     -0.081877
    165 C57         0.0090   -1.4200   -0.2830 c         1 MOL      0.667331
    166 O25         1.0100   -2.1150   -0.4930 o         1 MOL     -0.719310
    167 O26         0.0890   -0.1930   -0.1330 o         1 MOL     -0.719310
    168 H71        -4.3060   -0.7560    0.0220 hn        1 MOL      0.073087
    169 H72        -3.3390   -3.4720    1.0390 h1        1 MOL      0.062650
    170 H73        -1.5570   -2.1080    1.9120 hc        1 MOL     -0.008746
    171 H74        -2.3470   -0.7050    1.1450 hc        1 MOL     -0.008746
    172 H75        -1.9570   -1.6430   -1.0070 hc        1 MOL     -0.008685
    173 H76        -1.3070   -3.1560   -0.2700 hc        1 MOL     -0.008685
    174 N15        -4.4510   -0.9960    2.9780 n         1 MOL     -0.010001
    175 C58        -5.1500   -0.6320    4.2590 c3        1 MOL     -0.341502
    176 H77        -4.4220   -0.5890    5.0690 h1        1 MOL      0.116774
    177 H78        -5.6280    0.3410    4.1480 h1        1 MOL      0.116774
    178 H79        -5.9040   -1.3840    4.4880 h1        1 MOL      0.116774
    179 H80        -4.3590   -0.2790    2.2720 hn        1 MOL      0.025106
    180 Ca1         2.3040    0.2150   -1.2660 Ca        1 MOL      1.750813
    181 O27         0.9280   -0.0020   -3.5640 oh        1 MOL     -0.828631
    182 H81         0.2700    0.3430   -4.1710 ho        1 MOL      0.394801
    183 H82         1.3640   -0.6900   -4.0510 ho        1 MOL      0.394801
    184 O28         1.1430    2.5940   -2.1020 oh        1 MOL     -0.828631
    185 H83         1.1020    3.4790   -2.4740 ho        1 MOL      0.394801
    186 H84         0.9700    2.0170   -2.8490 ho        1 MOL      0.394801
@<TRIPOS>BOND
     1    1    2 1   
     2    1    4 1   
     3    1    5 1   
     4    1    6 1   
     5    2    3 2   
     6    2    7 1   
     7    7    8 1   
     8    7   15 1   
     9    8    9 1   
    10    8   11 1   
    11    8   16 1   
    12    9   10 2   
    13    9   19 1   
    14   11   12 1   
    15   11   17 1   
    16   11   18 1   
    17   12   13 1   
    18   12   14 1   
    19   19   20 1   
    20   19   27 1   
    21   20   21 1   
    22   20   23 1   
    23   20   28 1   
    24   21   22 2   
    25   21   38 1   
    26   23   24 1   
    27   23   25 1   
    28   23   29 1   
    29   24   26 1   
    30   24   30 1   
    31   24   31 1   
    32   25   32 1   
    33   25   33 1   
    34   25   34 1   
    35   26   35 1   
    36   26   36 1   
    37   26   37 1   
    38   38   39 1   
    39   38   46 1   
    40   39   40 1   
    41   39   42 1   
    42   39   47 1   
    43   40   41 2   
    44   40   50 1   
    45   42   43 1   
    46   42   48 1   
    47   42   49 1   
    48   43   44 1   
    49   43   45 1   
    50   50   51 1   
    51   50   54 1   
    52   51   52 1   
    53   51   55 1   
    54   51   56 1   
    55   52   53 2   
    56   52   57 1   
    57   57   58 1   
    58   57   65 1   
    59   58   59 1   
    60   58   61 1   
    61   58   66 1   
    62   59   60 2   
    63   59   69 1   
    64   61   62 1   
    65   61   67 1   
    66   61   68 1   
    67   62   63 1   
    68   62   64 1   
    69   69   70 1   
    70   69   73 1   
    71   70   71 1   
    72   70   74 1   
    73   70   75 1   
    74   71   72 2   
    75   71   76 1   
    76   76   77 1   
    77   76   85 1   
    78   77   78 1   
    79   77   80 1   
    80   77   86 1   
    81   78   79 2   
    82   78   93 1   
    83   80   81 1   
    84   80   87 1   
    85   80   88 1   
    86   81   82 1   
    87   81   89 1   
    88   81   90 1   
    89   82   83 1   
    90   82   84 2   
    91   83   91 1   
    92   83   92 1   
    93   93   94 1   
    94   93  100 1   
    95   94   95 1   
    96   94   97 1   
    97   94  101 1   
    98   95   96 2   
    99   95  109 1   
   100   97   98 1   
   101   97   99 1   
   102   97  102 1   
   103   98  103 1   
   104   98  104 1   
   105   98  105 1   
   106   99  106 1   
   107   99  107 1   
   108   99  108 1   
   109  109  110 1   
   110  109  117 1   
   111  110  111 1   
   112  110  113 1   
   113  110  118 1   
   114  111  112 2   
   115  111  123 1   
   116  113  114 1   
   117  113  119 1   
   118  113  120 1   
   119  114  115 1   
   120  114  116 2   
   121  115  121 1   
   122  115  122 1   
   123  123  124 1   
   124  123  135 1   
   125  124  125 1   
   126  124  127 1   
   127  124  136 1   
   128  125  126 2   
   129  125  144 1   
   130  127  128 1   
   131  127  137 1   
   132  127  138 1   
   133  128  129 ar  
   134  128  130 ar  
   135  129  131 ar  
   136  129  139 1   
   137  130  132 ar  
   138  130  140 1   
   139  131  133 ar  
   140  131  141 1   
   141  132  133 ar  
   142  132  142 1   
   143  133  134 1   
   144  134  143 1   
   145  144  145 1   
   146  144  153 1   
   147  145  146 1   
   148  145  148 1   
   149  145  154 1   
   150  146  147 2   
   151  146  159 1   
   152  148  149 1   
   153  148  155 1   
   154  148  156 1   
   155  149  150 1   
   156  149  157 1   
   157  149  158 1   
   158  150  151 1   
   159  150  152 1   
   160  159  160 1   
   161  159  168 1   
   162  160  161 1   
   163  160  163 1   
   164  160  169 1   
   165  161  162 2   
   166  161  174 1   
   167  163  164 1   
   168  163  170 1   
   169  163  171 1   
   170  164  165 1   
   171  164  172 1   
   172  164  173 1   
   173  165  166 1   
   174  165  167 1   
   175  174  175 1   
   176  174  179 1   
   177  175  176 1   
   178  175  177 1   
   179  175  178 1   
   180  181  182 1   
   181  181  183 1   
   182  184  185 1   
   183  184  186 1   
@<TRIPOS>SUBSTRUCTURE
     1 MOL         1 TEMP              0 ****  ****    0 ROOT
