@<TRIPOS>MOLECULE
MOL
  189   185     1     0     0
SMALL
resp


@<TRIPOS>ATOM
      1 C1         -0.1010    2.0600    6.2140 c3        1 MOL     -0.370854
      2 C2         -0.3530    1.6770    4.7720 c         1 MOL      0.732427
      3 O1          0.5420    1.9290    3.9910 o         1 MOL     -0.614589
      4 H1         -0.8690    2.7610    6.5420 hc        1 MOL      0.100860
      5 H2         -0.1340    1.1680    6.8380 hc        1 MOL      0.100860
      6 H3          0.8780    2.5290    6.3000 hc        1 MOL      0.100860
      7 N1         -1.5440    1.2310    4.3340 n         1 MOL     -0.592132
      8 C3         -2.0740    1.1610    2.9940 c3        1 MOL      0.088055
      9 C4         -2.4180    2.5370    2.4550 c         1 MOL      0.538549
     10 O2         -3.3680    3.1660    2.8430 o         1 MOL     -0.542897
     11 C5         -3.2600    0.1950    2.8670 c3        1 MOL     -0.204703
     12 C6         -3.9380    0.2120    1.5120 c         1 MOL      0.512725
     13 O3         -5.0920   -0.1940    1.4750 o         1 MOL     -0.541097
     14 O4         -3.3560    0.5750    0.4560 o         1 MOL     -0.541097
     15 H4         -2.2520    1.0920    5.0340 hn        1 MOL      0.318018
     16 H5         -1.3080    0.7490    2.3220 h1        1 MOL      0.031304
     17 H6         -3.9830    0.3040    3.6770 hc        1 MOL      0.081920
     18 H7         -2.9020   -0.8080    3.0960 hc        1 MOL      0.081920
     19 N2         -1.4620    3.0670    1.6800 n         1 MOL     -0.327031
     20 C7         -1.6360    4.4320    1.0450 c3        1 MOL     -0.052584
     21 C8         -2.6560    4.5540   -0.0800 c         1 MOL      0.468963
     22 O5         -2.8790    5.6790   -0.4600 o         1 MOL     -0.550398
     23 C9         -0.2650    5.0030    0.6650 c3        1 MOL     -0.035284
     24 C10         0.5920    5.2100    1.9780 c3        1 MOL      0.242211
     25 C11         1.8740    5.9510    1.7200 c3        1 MOL     -0.308237
     26 C12         2.8110    5.1580    0.7990 c3        1 MOL      0.266324
     27 N3          4.0720    5.9730    0.6610 n4        1 MOL     -0.481141
     28 H8         -0.6620    2.4960    1.4680 hn        1 MOL      0.258553
     29 H9         -1.9680    5.0610    1.8670 h1        1 MOL      0.088667
     30 H10        -0.3810    5.9670    0.1800 hc        1 MOL      0.023544
     31 H11         0.3420    4.2820    0.1140 hc        1 MOL      0.023544
     32 H12         0.8330    4.2590    2.4490 hc        1 MOL     -0.018985
     33 H13         0.0270    5.7880    2.7190 hc        1 MOL     -0.018985
     34 H14         2.4970    5.9450    2.6200 hc        1 MOL      0.071432
     35 H15         1.6930    6.9670    1.3620 hc        1 MOL      0.071432
     36 H16         2.4070    4.9940   -0.2010 hx        1 MOL      0.060265
     37 H17         3.1120    4.2600    1.3540 hx        1 MOL      0.060265
     38 H18         4.7850    5.4600    0.1720 hn        1 MOL      0.338391
     39 H19         3.9130    6.8550    0.1910 hn        1 MOL      0.338391
     40 H20         4.5160    6.1940    1.5490 hn        1 MOL      0.338391
     41 N4         -3.3210    3.5570   -0.6020 n         1 MOL      0.026558
     42 C13        -4.2320    3.7050   -1.7630 c3        1 MOL     -0.343358
     43 C14        -5.6770    3.4530   -1.3790 c         1 MOL      0.591222
     44 O6         -6.4850    3.9360   -2.1570 o         1 MOL     -0.530189
     45 C15        -3.8330    2.6730   -2.8410 c3        1 MOL      0.233728
     46 C16        -2.3320    2.8240   -3.2220 c         1 MOL      0.551945
     47 O7         -1.6430    1.7790   -3.0170 o         1 MOL     -0.652146
     48 O8         -2.0070    3.7620   -3.9890 o         1 MOL     -0.652146
     49 H21        -3.1270    2.6260   -0.2480 hn        1 MOL     -0.117375
     50 H22        -4.2470    4.7180   -2.1590 h1        1 MOL      0.153825
     51 H23        -4.3190    2.8040   -3.8050 hc        1 MOL     -0.040478
     52 H24        -3.9800    1.6920   -2.4020 hc        1 MOL     -0.040478
     53 N5         -5.9680    2.7520   -0.2900 n         1 MOL     -0.378127
     54 C17        -7.2810    2.2580    0.0400 c3        1 MOL     -0.075275
     55 C18        -7.7610    1.0010   -0.8040 c         1 MOL      0.376383
     56 O9         -8.8790    0.9990   -1.3160 o         1 MOL     -0.514941
     57 H25        -5.2510    2.4680    0.3690 hn        1 MOL      0.255106
     58 H26        -7.9880    3.0600   -0.1490 h1        1 MOL      0.090297
     59 H27        -7.3550    2.0540    1.1120 h1        1 MOL      0.090297
     60 N6         -6.8380    0.0190   -1.0240 n         1 MOL     -0.266608
     61 C19        -6.9800   -1.2710   -1.7330 c3        1 MOL      0.122188
     62 C20        -6.8130   -2.4650   -0.7730 c         1 MOL      0.246531
     63 O10        -6.9220   -3.6220   -1.1920 o         1 MOL     -0.511678
     64 C21        -5.9510   -1.4230   -2.8350 c3        1 MOL     -0.333732
     65 C22        -4.4460   -1.3580   -2.4440 c         1 MOL      0.743337
     66 O11        -3.6400   -0.6940   -3.1420 o         1 MOL     -0.737857
     67 O12        -3.9780   -1.9060   -1.4040 o         1 MOL     -0.737857
     68 H28        -5.9690    0.1730   -0.5380 hn        1 MOL      0.372754
     69 H29        -7.9770   -1.2980   -2.1770 h1        1 MOL      0.091067
     70 H30        -6.1800   -0.5810   -3.4880 hc        1 MOL      0.104702
     71 H31        -6.1890   -2.3490   -3.3590 hc        1 MOL      0.104702
     72 N7         -6.5020   -2.1660    0.4530 n         1 MOL      0.004904
     73 C23        -6.4460   -3.0230    1.6070 c3        1 MOL     -0.247594
     74 C24        -5.1810   -3.8520    1.7560 c         1 MOL      0.557017
     75 O13        -5.1630   -4.8140    2.5090 o         1 MOL     -0.572392
     76 H32        -6.3600   -1.1980    0.6770 hn        1 MOL      0.045359
     77 H33        -7.2500   -3.7290    1.3930 h1        1 MOL      0.120123
     78 H34        -6.6610   -2.4930    2.5320 h1        1 MOL      0.120123
     79 N8         -4.1340   -3.5210    0.9860 n         1 MOL     -0.044782
     80 C25        -2.8440   -4.1670    0.9490 c3        1 MOL     -0.283454
     81 C26        -1.6300   -3.2550    1.0160 c         1 MOL      0.673307
     82 O14        -1.6900   -2.1070    0.5640 o         1 MOL     -0.693534
     83 C27        -2.6810   -5.0060   -0.3290 c3        1 MOL      0.592202
     84 C28        -3.3880   -6.3290   -0.2970 c3        1 MOL     -0.333874
     85 O15        -3.1500   -4.3610   -1.5240 oh        1 MOL     -0.705984
     86 H35        -4.2840   -2.7930    0.2930 hn        1 MOL     -0.001114
     87 H36        -2.7680   -4.9180    1.7380 h1        1 MOL      0.092641
     88 H37        -1.6110   -5.1350   -0.4660 h1        1 MOL     -0.057291
     89 H38        -3.6290   -3.5730   -1.2590 ho        1 MOL      0.489955
     90 H39        -3.0100   -6.9580    0.5030 hc        1 MOL      0.076680
     91 H40        -4.4550   -6.0910   -0.2350 hc        1 MOL      0.076680
     92 H41        -3.0930   -6.8040   -1.2290 hc        1 MOL      0.076680
     93 N9         -0.4950   -3.7810    1.6040 n         1 MOL     -0.575313
     94 C29         0.7640   -3.0480    1.6720 c3        1 MOL      0.195549
     95 C30         1.7810   -3.5970    0.7210 c         1 MOL      0.501680
     96 O16         1.7410   -4.7550    0.4160 o         1 MOL     -0.564837
     97 C31         1.2990   -3.0190    3.1090 c3        1 MOL      0.053135
     98 C32         0.2520   -2.3850    3.9800 c3        1 MOL      0.167973
     99 C33         2.5900   -2.2610    3.4120 c3        1 MOL     -0.352269
    100 C34         0.5100   -2.3270    5.4890 c3        1 MOL     -0.250752
    101 H42        -0.6020   -4.7520    1.8560 hn        1 MOL      0.292915
    102 H43         0.5210   -2.0060    1.4740 h1        1 MOL      0.141039
    103 H44         1.4070   -4.0230    3.5100 hc        1 MOL      0.015320
    104 H45        -0.6880   -2.9410    3.9310 hc        1 MOL     -0.017744
    105 H46         0.0370   -1.3620    3.6690 hc        1 MOL     -0.017744
    106 H47         2.3890   -1.1900    3.3440 hc        1 MOL      0.089077
    107 H48         2.8740   -2.4020    4.4520 hc        1 MOL      0.089077
    108 H49         3.3480   -2.5570    2.6870 hc        1 MOL      0.089077
    109 H50        -0.3940   -1.9980    5.9870 hc        1 MOL      0.056344
    110 H51         0.7420   -3.3180    5.8770 hc        1 MOL      0.056344
    111 H52         1.3260   -1.6790    5.8130 hc        1 MOL      0.056344
    112 N10         2.5970   -2.7590    0.1770 n         1 MOL     -0.174123
    113 C35         3.5760   -2.9690   -0.9150 c3        1 MOL      0.193838
    114 C36         4.9580   -2.4000   -0.5780 c         1 MOL      0.219345
    115 O17         5.0380   -1.7760    0.4830 o         1 MOL     -0.248101
    116 C37         3.1970   -2.2680   -2.3220 c3        1 MOL      0.141112
    117 C38         1.8820   -2.8870   -2.8000 c3        1 MOL     -0.487856
    118 O18         2.9670   -0.9020   -2.0630 oh        1 MOL     -0.434478
    119 H53         2.5740   -1.8610    0.6260 hn        1 MOL     -0.149857
    120 H54         3.7050   -4.0420   -1.0480 h1        1 MOL      0.053721
    121 H55         4.0500   -2.2960   -2.9950 h1        1 MOL      0.030669
    122 H56         2.1200   -0.9060   -1.6080 ho        1 MOL      0.383649
    123 H57         1.1940   -3.0930   -1.9830 hc        1 MOL      0.142642
    124 H58         1.3670   -2.2360   -3.5120 hc        1 MOL      0.142642
    125 H59         2.2070   -3.8170   -3.2680 hc        1 MOL      0.142642
    126 N11         5.8970   -2.4890   -1.4980 n         1 MOL     -0.222571
    127 C39         7.2700   -2.0840   -1.2220 c3        1 MOL     -0.011354
    128 C40         7.3330   -0.5730   -0.8290 c         1 MOL      0.194130
    129 O19         8.1180   -0.2340    0.0750 o         1 MOL     -0.464838
    130 C41         8.2570   -2.3650   -2.3990 c3        1 MOL      0.467406
    131 C42         9.6370   -2.3770   -1.8810 c3        1 MOL     -0.420099
    132 O20         8.0090   -3.6090   -2.8860 oh        1 MOL     -0.610889
    133 H60         5.7420   -2.9580   -2.3870 hn        1 MOL      0.185075
    134 H61         7.5990   -2.6570   -0.3510 h1        1 MOL      0.140987
    135 H62         8.1720   -1.5800   -3.1500 h1        1 MOL     -0.049074
    136 H63         8.2490   -3.5600   -3.8130 ho        1 MOL      0.395685
    137 H64         9.7530   -1.4430   -1.3480 hc        1 MOL      0.117323
    138 H65         9.8100   -3.0670   -1.0530 hc        1 MOL      0.117323
    139 H66        10.3420   -2.3440   -2.7140 hc        1 MOL      0.117323
    140 N12         6.6000    0.3010   -1.4710 n         1 MOL     -0.059428
    141 C43         6.5510    1.6980   -1.1380 c3        1 MOL     -0.066231
    142 C44         5.6890    2.1460    0.0570 c         1 MOL      0.534110
    143 O21         5.4210    3.3460    0.2450 o         1 MOL     -0.630870
    144 C45         6.0880    2.3940   -2.5260 c3        1 MOL     -0.236508
    145 C46         4.6460    2.0750   -2.9080 c3        1 MOL     -0.040152
    146 C47         4.3470    2.1470   -4.4290 c3        1 MOL     -0.016926
    147 C48         2.9230    1.7820   -4.7490 c3        1 MOL     -0.085406
    148 N13         2.6080    0.3640   -4.4960 n4        1 MOL     -0.369710
    149 H67         6.1410   -0.0020   -2.3200 hn        1 MOL      0.153939
    150 H68         7.5520    2.0890   -0.9200 h1        1 MOL      0.138896
    151 H69         6.8030    2.1170   -3.3050 hc        1 MOL      0.078597
    152 H70         6.2240    3.4670   -2.3990 hc        1 MOL      0.078597
    153 H71         4.0340    2.8490   -2.4380 hc        1 MOL      0.075802
    154 H72         4.3830    1.1130   -2.4940 hc        1 MOL      0.075802
    155 H73         5.0290    1.5510   -5.0300 hc        1 MOL      0.047110
    156 H74         4.4950    3.1530   -4.8370 hc        1 MOL      0.047110
    157 H75         2.7090    2.1470   -5.7510 hx        1 MOL      0.115408
    158 H76         2.2690    2.3830   -4.1020 hx        1 MOL      0.115408
    159 H77         3.0460   -0.1750   -5.2260 hn        1 MOL      0.298449
    160 H78         2.9630    0.0510   -3.6020 hn        1 MOL      0.298449
    161 H79         1.6080    0.2860   -4.5670 hn        1 MOL      0.298449
    162 N14         5.2310    1.1380    0.8300 n         1 MOL     -0.158666
    163 C49         4.4080    1.2480    2.0510 c3        1 MOL      0.061141
    164 C50         4.9500    0.5310    3.2250 c         1 MOL      0.432368
    165 O22         4.9920    1.1560    4.2610 o         1 MOL     -0.522542
    166 C51         2.9640    0.7610    1.6380 c3        1 MOL      0.076619
    167 C52         2.3490    1.4230    0.4070 c3        1 MOL      0.231528
    168 C53         1.0320    0.7480   -0.0260 c         1 MOL      0.532821
    169 O23         0.8830   -0.4630   -0.4270 o         1 MOL     -0.719058
    170 O24         0.0280    1.5090   -0.1390 o         1 MOL     -0.719058
    171 H80         5.4750    0.2200    0.4830 hn        1 MOL     -0.078846
    172 H81         4.2860    2.3060    2.2980 h1        1 MOL      0.045674
    173 H82         2.3960    0.8800    2.5520 hc        1 MOL      0.029027
    174 H83         3.0440   -0.3000    1.4070 hc        1 MOL      0.029027
    175 H84         3.0050    1.2480   -0.4390 hc        1 MOL     -0.110755
    176 H85         2.2840    2.5070    0.4270 hc        1 MOL     -0.110755
    177 N15         5.6400   -0.6020    3.0770 n         1 MOL     -0.101058
    178 C54         6.4620   -1.3520    4.0280 c3        1 MOL     -0.234886
    179 H86         6.0460   -1.2450    5.0310 h1        1 MOL      0.102352
    180 H87         6.4710   -2.4050    3.7500 h1        1 MOL      0.102352
    181 H88         7.4800   -0.9630    4.0140 h1        1 MOL      0.102352
    182 H89         5.4400   -1.1750    2.2720 hn        1 MOL      0.148959
    183 Ca1        -1.6430   -0.2300   -1.3540 Ca        1 MOL      1.805536
    184 O25        -0.2300   -0.2250   -4.0840 oh        1 MOL     -0.854074
    185 H90        -0.8500    0.4830   -4.2520 ho        1 MOL      0.407432
    186 H91        -0.1910   -0.7070   -4.9030 ho        1 MOL      0.407432
    187 O26        -1.3060   -2.5110   -2.5480 oh        1 MOL     -0.854074
    188 H92        -1.0460   -2.8320   -3.4110 ho        1 MOL      0.407432
    189 H93        -2.1160   -2.9860   -2.3460 ho        1 MOL      0.407432
@<TRIPOS>BOND
     1    1    2 1   
     2    1    4 1   
     3    1    5 1   
     4    1    6 1   
     5    2    3 2   
     6    2    7 1   
     7    7    8 1   
     8    7   15 1   
     9    8    9 1   
    10    8   11 1   
    11    8   16 1   
    12    9   10 2   
    13    9   19 1   
    14   11   12 1   
    15   11   17 1   
    16   11   18 1   
    17   12   13 1   
    18   12   14 1   
    19   19   20 1   
    20   19   28 1   
    21   20   21 1   
    22   20   23 1   
    23   20   29 1   
    24   21   22 2   
    25   21   41 1   
    26   23   24 1   
    27   23   30 1   
    28   23   31 1   
    29   24   25 1   
    30   24   32 1   
    31   24   33 1   
    32   25   26 1   
    33   25   34 1   
    34   25   35 1   
    35   26   27 1   
    36   26   36 1   
    37   26   37 1   
    38   27   38 1   
    39   27   39 1   
    40   27   40 1   
    41   41   42 1   
    42   41   49 1   
    43   42   43 1   
    44   42   45 1   
    45   42   50 1   
    46   43   44 2   
    47   43   53 1   
    48   45   46 1   
    49   45   51 1   
    50   45   52 1   
    51   46   47 1   
    52   46   48 1   
    53   53   54 1   
    54   53   57 1   
    55   54   55 1   
    56   54   58 1   
    57   54   59 1   
    58   55   56 2   
    59   55   60 1   
    60   60   61 1   
    61   60   68 1   
    62   61   62 1   
    63   61   64 1   
    64   61   69 1   
    65   62   63 2   
    66   62   72 1   
    67   64   65 1   
    68   64   70 1   
    69   64   71 1   
    70   65   66 1   
    71   65   67 1   
    72   72   73 1   
    73   72   76 1   
    74   73   74 1   
    75   73   77 1   
    76   73   78 1   
    77   74   75 2   
    78   74   79 1   
    79   79   80 1   
    80   79   86 1   
    81   80   81 1   
    82   80   83 1   
    83   80   87 1   
    84   81   82 2   
    85   81   93 1   
    86   83   84 1   
    87   83   85 1   
    88   83   88 1   
    89   84   90 1   
    90   84   91 1   
    91   84   92 1   
    92   85   89 1   
    93   93   94 1   
    94   93  101 1   
    95   94   95 1   
    96   94   97 1   
    97   94  102 1   
    98   95   96 2   
    99   95  112 1   
   100   97   98 1   
   101   97   99 1   
   102   97  103 1   
   103   98  100 1   
   104   98  104 1   
   105   98  105 1   
   106   99  106 1   
   107   99  107 1   
   108   99  108 1   
   109  100  109 1   
   110  100  110 1   
   111  100  111 1   
   112  112  113 1   
   113  112  119 1   
   114  113  114 1   
   115  113  116 1   
   116  113  120 1   
   117  114  115 2   
   118  114  126 1   
   119  116  117 1   
   120  116  118 1   
   121  116  121 1   
   122  117  123 1   
   123  117  124 1   
   124  117  125 1   
   125  118  122 1   
   126  126  127 1   
   127  126  133 1   
   128  127  128 1   
   129  127  130 1   
   130  127  134 1   
   131  128  129 2   
   132  128  140 1   
   133  130  131 1   
   134  130  132 1   
   135  130  135 1   
   136  131  137 1   
   137  131  138 1   
   138  131  139 1   
   139  132  136 1   
   140  140  141 1   
   141  140  149 1   
   142  141  142 1   
   143  141  144 1   
   144  141  150 1   
   145  142  143 2   
   146  142  162 1   
   147  144  145 1   
   148  144  151 1   
   149  144  152 1   
   150  145  146 1   
   151  145  153 1   
   152  145  154 1   
   153  146  147 1   
   154  146  155 1   
   155  146  156 1   
   156  147  148 1   
   157  147  157 1   
   158  147  158 1   
   159  148  159 1   
   160  148  160 1   
   161  148  161 1   
   162  162  163 1   
   163  162  171 1   
   164  163  164 1   
   165  163  166 1   
   166  163  172 1   
   167  164  165 2   
   168  164  177 1   
   169  166  167 1   
   170  166  173 1   
   171  166  174 1   
   172  167  168 1   
   173  167  175 1   
   174  167  176 1   
   175  168  169 1   
   176  168  170 1   
   177  177  178 1   
   178  177  182 1   
   179  178  179 1   
   180  178  180 1   
   181  178  181 1   
   182  184  185 1   
   183  184  186 1   
   184  187  188 1   
   185  187  189 1   
@<TRIPOS>SUBSTRUCTURE
     1 MOL         1 TEMP              0 ****  ****    0 ROOT
