@<TRIPOS>MOLECULE
MOL
  172   171     1     0     0
SMALL
resp


@<TRIPOS>ATOM
      1 C1          0.1720   -2.5890    5.9130 c3        1 MOL     -0.398593
      2 C2          0.6990   -2.6410    4.4300 c         1 MOL      0.788991
      3 O1          0.1580   -3.4510    3.7180 o         1 MOL     -0.582295
      4 H1         -0.7390   -3.1830    5.9950 hc        1 MOL      0.090296
      5 H2          0.9290   -2.9940    6.5840 hc        1 MOL      0.090296
      6 H3         -0.0430   -1.5560    6.1870 hc        1 MOL      0.090296
      7 N1          1.7090   -1.8790    4.0930 n         1 MOL     -0.700487
      8 C3          2.2390   -1.8160    2.7390 c3        1 MOL      0.419033
      9 C4          2.6770   -3.2560    2.2430 c         1 MOL      0.491170
     10 O2          3.6310   -3.7890    2.7930 o         1 MOL     -0.574360
     11 C5          3.5010   -0.8680    2.6510 c3        1 MOL     -0.393243
     12 C6          4.0460   -0.7450    1.2580 c         1 MOL      0.691158
     13 O3          3.4310   -1.1850    0.2770 o         1 MOL     -0.637199
     14 O4          5.1460   -0.1350    1.1190 o         1 MOL     -0.637199
     15 H4          2.1790   -1.3290    4.7980 hn        1 MOL      0.322092
     16 H5          1.5900   -1.3750    1.9900 h1        1 MOL     -0.085511
     17 H6          4.2410   -1.2850    3.3350 hc        1 MOL      0.092454
     18 H7          3.2290    0.1400    2.9700 hc        1 MOL      0.092454
     19 N2          2.0640   -3.7170    1.1140 n         1 MOL     -0.375846
     20 C7          2.4090   -4.9920    0.5410 c3        1 MOL      0.251349
     21 C8          3.6800   -4.8520   -0.3670 c         1 MOL      0.244860
     22 O5          4.3470   -5.8710   -0.5700 o         1 MOL     -0.549569
     23 C9          1.2360   -5.5000   -0.2480 c3        1 MOL     -0.295778
     24 H8          1.4970   -3.0950    0.5410 hn        1 MOL      0.181023
     25 H9          2.6630   -5.6630    1.3680 h1        1 MOL      0.043366
     26 H10         1.1660   -5.1130   -1.2570 hc        1 MOL      0.083970
     27 H11         1.3060   -6.5740   -0.3870 hc        1 MOL      0.083970
     28 H12         0.2950   -5.5150    0.3020 hc        1 MOL      0.083970
     29 N3          4.0830   -3.7100   -0.9570 n         1 MOL      0.013914
     30 C10         5.1050   -3.6100   -2.0390 c3        1 MOL     -0.169640
     31 C11         6.5070   -3.1870   -1.6000 c         1 MOL      0.479680
     32 O6          7.5080   -3.4490   -2.2680 o         1 MOL     -0.548425
     33 C12         4.5610   -2.6360   -3.1320 c3        1 MOL      0.060686
     34 C13         3.0560   -2.6290   -3.3640 c         1 MOL      0.683170
     35 O7          2.4480   -3.7050   -3.8090 o         1 MOL     -0.719022
     36 O8          2.4540   -1.5200   -3.2750 o         1 MOL     -0.719022
     37 H13         3.5420   -2.8840   -0.7420 hn        1 MOL      0.178543
     38 H14         5.1940   -4.6030   -2.4960 h1        1 MOL      0.129411
     39 H15         4.9940   -2.9330   -4.0880 hc        1 MOL     -0.030640
     40 H16         4.7710   -1.5900   -2.9020 hc        1 MOL     -0.030640
     41 N4          6.5800   -2.5930   -0.4020 n         1 MOL     -0.294872
     42 C14         7.7470   -1.8680    0.0380 c3        1 MOL     -0.034876
     43 C15         7.9780   -0.4610   -0.5640 c         1 MOL      0.486621
     44 O9          9.1330   -0.0290   -0.5120 o         1 MOL     -0.595656
     45 H17         5.6790   -2.3450   -0.0220 hn        1 MOL      0.166196
     46 H18         8.6230   -2.4850   -0.1770 h1        1 MOL      0.073952
     47 H19         7.7820   -1.7520    1.1160 h1        1 MOL      0.073952
     48 N5          6.9950    0.2320   -1.0930 n         1 MOL     -0.234900
     49 C16         7.2920    1.5360   -1.6800 c3        1 MOL     -0.083499
     50 C17         7.1770    2.5850   -0.5400 c         1 MOL      0.417681
     51 O10         7.5240    3.6990   -0.7770 o         1 MOL     -0.529097
     52 C18         6.3150    1.7490   -2.8440 c3        1 MOL     -0.219481
     53 C19         4.8430    2.0070   -2.4420 c         1 MOL      0.775320
     54 N6          4.3560    3.2500   -2.5670 n         1 MOL     -0.877651
     55 O11         4.0960    1.0460   -2.0890 o         1 MOL     -0.677837
     56 H20         6.0490   -0.0970   -0.9390 hn        1 MOL      0.245016
     57 H21         8.2660    1.5790   -2.1710 h1        1 MOL      0.149601
     58 H22         6.2940    1.0130   -3.6480 hc        1 MOL      0.078781
     59 H23         6.6030    2.6740   -3.3580 hc        1 MOL      0.078781
     60 H24         4.9500    4.0660   -2.6580 hn        1 MOL      0.384418
     61 H25         3.3700    3.4640   -2.5760 hn        1 MOL      0.384418
     62 N7          6.6300    2.2260    0.6120 n         1 MOL     -0.048594
     63 C20         6.3870    3.2800    1.6610 c3        1 MOL     -0.386198
     64 C21         5.1510    4.1230    1.6240 c         1 MOL      0.559548
     65 O12         5.0690    5.3290    2.1230 o         1 MOL     -0.583362
     66 H26         6.4020    1.2480    0.6780 hn        1 MOL      0.130758
     67 H27         7.2560    3.9430    1.6530 h1        1 MOL      0.158751
     68 H28         6.3070    2.7170    2.5950 h1        1 MOL      0.158751
     69 N8          4.0890    3.6090    1.0590 n         1 MOL     -0.261907
     70 C22         2.7290    4.1800    1.0330 c3        1 MOL     -0.086212
     71 C23         1.6370    3.0870    1.0530 c         1 MOL      0.555815
     72 O13         1.7880    2.1010    0.3150 o         1 MOL     -0.505612
     73 C24         2.5680    4.9410   -0.2470 c3        1 MOL      0.688436
     74 C25         1.5190    6.0660   -0.0770 c3        1 MOL     -0.448490
     75 O14         3.7410    5.5420   -0.6990 oh        1 MOL     -0.610975
     76 H29         4.3240    2.8180    0.4710 hn        1 MOL      0.138716
     77 H30         2.6840    4.7960    1.9220 h1        1 MOL      0.084716
     78 H31         2.2090    4.3560   -1.0960 h1        1 MOL     -0.088070
     79 H32         3.6620    5.6360   -1.6460 ho        1 MOL      0.342483
     80 H33         1.9790    6.7040    0.6770 hc        1 MOL      0.089586
     81 H34         1.4010    6.6680   -0.9710 hc        1 MOL      0.089586
     82 H35         0.5710    5.6310    0.2480 hc        1 MOL      0.089586
     83 N9          0.5450    3.2470    1.8240 n         1 MOL     -0.621289
     84 C26        -0.6060    2.3180    1.8780 c3        1 MOL      0.003222
     85 C27        -1.5430    2.7250    0.7980 c         1 MOL      0.579487
     86 O15        -1.7860    3.9160    0.6090 o         1 MOL     -0.604754
     87 C28        -1.2800    2.3980    3.2560 c3        1 MOL      0.290451
     88 C29        -0.3330    2.3070    4.4650 c3        1 MOL      0.170542
     89 C30        -2.4250    1.4440    3.3680 c3        1 MOL     -0.096431
     90 C31        -0.9990    2.5540    5.8030 c3        1 MOL     -0.241183
     91 H36         0.3920    4.1080    2.3260 hn        1 MOL      0.315081
     92 H37        -0.2730    1.2780    1.7890 h1        1 MOL      0.160007
     93 H38        -1.7590    3.3690    3.2900 hc        1 MOL     -0.063989
     94 H39         0.3220    3.1750    4.3230 hc        1 MOL     -0.058083
     95 H40         0.2670    1.3980    4.4210 hc        1 MOL     -0.058083
     96 H41        -3.1780    1.7030    2.6120 hc        1 MOL     -0.018047
     97 H42        -2.0780    0.4230    3.2520 hc        1 MOL     -0.018047
     98 H43        -2.8980    1.5980    4.3360 hc        1 MOL     -0.018047
     99 H44        -1.7950    3.2920    5.6880 hc        1 MOL      0.050750
    100 H45        -1.4190    1.6350    6.1970 hc        1 MOL      0.050750
    101 H46        -0.2790    2.9830    6.5010 hc        1 MOL      0.050750
    102 N10        -1.9870    1.7730   -0.0350 n         1 MOL     -0.197998
    103 C32        -3.0960    1.9280   -0.9690 c3        1 MOL      0.013307
    104 C33        -4.5110    1.5770   -0.4580 c         1 MOL      0.506504
    105 O16        -4.6360    0.7940    0.4940 o         1 MOL     -0.385441
    106 C34        -2.7630    1.1700   -2.2500 c3        1 MOL     -0.130118
    107 C35        -1.3810    1.3060   -2.8540 c         1 MOL      0.701012
    108 O17        -0.4800    0.4700   -2.5270 o         1 MOL     -0.705330
    109 O18        -1.0600    2.2300   -3.6770 o         1 MOL     -0.705330
    110 H47        -1.6660    0.8380    0.1410 hn        1 MOL      0.074538
    111 H48        -3.1650    2.9510   -1.3450 h1        1 MOL      0.065626
    112 H49        -3.5290    1.4810   -2.9620 hc        1 MOL      0.032799
    113 H50        -2.8950    0.0930   -2.1550 hc        1 MOL      0.032799
    114 N11        -5.5980    1.8610   -1.1650 n         1 MOL     -0.758743
    115 C36        -6.9530    1.3590   -0.7940 c3        1 MOL      0.598747
    116 C37        -7.1700   -0.1140   -0.7770 c         1 MOL      0.222091
    117 O19        -7.7330   -0.5900    0.1810 o         1 MOL     -0.474274
    118 C38        -8.0610    2.2710   -1.4020 c3        1 MOL     -0.427810
    119 C39        -9.4920    1.7850   -1.2200 ca        1 MOL      0.245172
    120 C40       -10.1610    1.7860   -0.0030 ca        1 MOL     -0.217843
    121 C41       -10.2100    1.4930   -2.3980 ca        1 MOL     -0.217843
    122 C42       -11.5200    1.4390    0.0730 ca        1 MOL     -0.065555
    123 C43       -11.5960    1.2530   -2.3020 ca        1 MOL     -0.065555
    124 C44       -12.2690    1.2150   -1.0220 ca        1 MOL     -0.178892
    125 H51        -5.4860    2.2400   -2.0900 hn        1 MOL      0.361546
    126 H52        -7.0540    1.5430    0.2710 h1        1 MOL      0.021605
    127 H53        -7.8200    2.3140   -2.4650 hc        1 MOL      0.100209
    128 H54        -7.9600    3.2680   -0.9740 hc        1 MOL      0.100209
    129 H55        -9.6060    2.1060    0.8650 ha        1 MOL      0.124247
    130 H56        -9.7030    1.5530   -3.3540 ha        1 MOL      0.124247
    131 H57       -12.0210    1.4280    1.0370 ha        1 MOL      0.097333
    132 H58       -12.1560    1.0330   -3.1990 ha        1 MOL      0.097333
    133 H59       -13.2880    0.8660   -0.9210 ha        1 MOL      0.127517
    134 N12        -6.6100   -0.9290   -1.6640 n         1 MOL     -0.072815
    135 C45        -6.7570   -2.3790   -1.5420 c3        1 MOL      0.024706
    136 C46        -6.0360   -2.9370   -0.2590 c         1 MOL      0.247373
    137 O20        -6.5580   -3.8620    0.3940 o         1 MOL     -0.467019
    138 C47        -6.1470   -2.9920   -2.7820 c3        1 MOL      0.048719
    139 C48        -6.4610   -1.9200   -3.7840 c3        1 MOL     -0.004740
    140 C49        -6.1050   -0.6370   -3.0330 c3        1 MOL     -0.095407
    141 H60        -7.8210   -2.6290   -1.5730 h1        1 MOL      0.071209
    142 H61        -5.0790   -3.1200   -2.6140 hc        1 MOL      0.010755
    143 H62        -6.6520   -3.9090   -3.0740 hc        1 MOL      0.010755
    144 H63        -5.8540   -1.9650   -4.6950 hc        1 MOL      0.017232
    145 H64        -7.5300   -1.9820   -4.0010 hc        1 MOL      0.017232
    146 H65        -5.0180   -0.5550   -2.9610 h1        1 MOL      0.046387
    147 H66        -6.5570    0.1850   -3.5880 h1        1 MOL      0.046387
    148 N13        -4.8420   -2.3590    0.0240 n         1 MOL     -0.119853
    149 C50        -4.0630   -2.4690    1.2970 c3        1 MOL     -0.256407
    150 C51        -4.7710   -2.0190    2.5900 c         1 MOL      0.507842
    151 O21        -4.7180   -2.6800    3.6270 o         1 MOL     -0.563197
    152 C52        -2.7510   -1.7630    1.1100 c3        1 MOL      0.059277
    153 C53        -1.8360   -2.3710    0.0400 c3        1 MOL     -0.335485
    154 C54        -0.5280   -1.7080   -0.0980 c         1 MOL      1.054520
    155 O22        -0.3760   -0.5550    0.2330 o         1 MOL     -0.834518
    156 O23         0.4340   -2.1890   -0.6750 o         1 MOL     -0.834518
    157 H67        -4.5110   -1.6320   -0.5800 hn        1 MOL      0.256734
    158 H68        -3.8450   -3.5270    1.4410 h1        1 MOL      0.152146
    159 H69        -2.1950   -1.8320    2.0450 hc        1 MOL      0.051826
    160 H70        -2.8490   -0.6950    0.9270 hc        1 MOL      0.051826
    161 H71        -2.3550   -2.3290   -0.9180 hc        1 MOL      0.068606
    162 H72        -1.7190   -3.4150    0.3620 hc        1 MOL      0.068606
    163 N14        -5.4950   -0.8990    2.5280 n         1 MOL     -0.073588
    164 C55        -6.2520   -0.3910    3.7390 c3        1 MOL     -0.281436
    165 H73        -6.4780   -1.2270    4.4020 h1        1 MOL      0.103149
    166 H74        -5.6430    0.3400    4.2700 h1        1 MOL      0.103149
    167 H75        -7.1830    0.0770    3.4160 h1        1 MOL      0.103149
    168 H76        -5.5200   -0.3350    1.6890 hn        1 MOL      0.112504
    169 Ca1         1.7750    0.1330   -1.4390 Ca        1 MOL      1.703876
    170 O24         1.4750    2.4900   -2.7440 oh        1 MOL     -0.924321
    171 H77         1.7100    3.0400   -3.4960 ho        1 MOL      0.431640
    172 H78         0.5680    2.2270   -2.9020 ho        1 MOL      0.431640
@<TRIPOS>BOND
     1    1    2 1   
     2    1    4 1   
     3    1    5 1   
     4    1    6 1   
     5    2    3 2   
     6    2    7 1   
     7    7    8 1   
     8    7   15 1   
     9    8    9 1   
    10    8   11 1   
    11    8   16 1   
    12    9   10 2   
    13    9   19 1   
    14   11   12 1   
    15   11   17 1   
    16   11   18 1   
    17   12   13 1   
    18   12   14 1   
    19   19   20 1   
    20   19   24 1   
    21   20   21 1   
    22   20   23 1   
    23   20   25 1   
    24   21   22 2   
    25   21   29 1   
    26   23   26 1   
    27   23   27 1   
    28   23   28 1   
    29   29   30 1   
    30   29   37 1   
    31   30   31 1   
    32   30   33 1   
    33   30   38 1   
    34   31   32 2   
    35   31   41 1   
    36   33   34 1   
    37   33   39 1   
    38   33   40 1   
    39   34   35 1   
    40   34   36 1   
    41   41   42 1   
    42   41   45 1   
    43   42   43 1   
    44   42   46 1   
    45   42   47 1   
    46   43   44 2   
    47   43   48 1   
    48   48   49 1   
    49   48   56 1   
    50   49   50 1   
    51   49   52 1   
    52   49   57 1   
    53   50   51 2   
    54   50   62 1   
    55   52   53 1   
    56   52   58 1   
    57   52   59 1   
    58   53   54 1   
    59   53   55 2   
    60   54   60 1   
    61   54   61 1   
    62   62   63 1   
    63   62   66 1   
    64   63   64 1   
    65   63   67 1   
    66   63   68 1   
    67   64   65 2   
    68   64   69 1   
    69   69   70 1   
    70   69   76 1   
    71   70   71 1   
    72   70   73 1   
    73   70   77 1   
    74   71   72 2   
    75   71   83 1   
    76   73   74 1   
    77   73   75 1   
    78   73   78 1   
    79   74   80 1   
    80   74   81 1   
    81   74   82 1   
    82   75   79 1   
    83   83   84 1   
    84   83   91 1   
    85   84   85 1   
    86   84   87 1   
    87   84   92 1   
    88   85   86 2   
    89   85  102 1   
    90   87   88 1   
    91   87   89 1   
    92   87   93 1   
    93   88   90 1   
    94   88   94 1   
    95   88   95 1   
    96   89   96 1   
    97   89   97 1   
    98   89   98 1   
    99   90   99 1   
   100   90  100 1   
   101   90  101 1   
   102  102  103 1   
   103  102  110 1   
   104  103  104 1   
   105  103  106 1   
   106  103  111 1   
   107  104  105 2   
   108  104  114 1   
   109  106  107 1   
   110  106  112 1   
   111  106  113 1   
   112  107  108 1   
   113  107  109 1   
   114  114  115 1   
   115  114  125 1   
   116  115  116 1   
   117  115  118 1   
   118  115  126 1   
   119  116  117 2   
   120  116  134 1   
   121  118  119 1   
   122  118  127 1   
   123  118  128 1   
   124  119  120 ar  
   125  119  121 ar  
   126  120  122 ar  
   127  120  129 1   
   128  121  123 ar  
   129  121  130 1   
   130  122  124 ar  
   131  122  131 1   
   132  123  124 ar  
   133  123  132 1   
   134  124  133 1   
   135  134  135 1   
   136  134  140 1   
   137  135  136 1   
   138  135  138 1   
   139  135  141 1   
   140  136  137 2   
   141  136  148 1   
   142  138  139 1   
   143  138  142 1   
   144  138  143 1   
   145  139  140 1   
   146  139  144 1   
   147  139  145 1   
   148  140  146 1   
   149  140  147 1   
   150  148  149 1   
   151  148  157 1   
   152  149  150 1   
   153  149  152 1   
   154  149  158 1   
   155  150  151 2   
   156  150  163 1   
   157  152  153 1   
   158  152  159 1   
   159  152  160 1   
   160  153  154 1   
   161  153  161 1   
   162  153  162 1   
   163  154  155 1   
   164  154  156 1   
   165  163  164 1   
   166  163  168 1   
   167  164  165 1   
   168  164  166 1   
   169  164  167 1   
   170  170  171 1   
   171  170  172 1   
@<TRIPOS>SUBSTRUCTURE
     1 MOL         1 TEMP              0 ****  ****    0 ROOT
