@<TRIPOS>MOLECULE
MOL
  172   171     1     0     0
SMALL
resp


@<TRIPOS>ATOM
      1 C1         -0.1960   -3.6590    5.8850 c3        1 MOL     -0.435814
      2 C2          0.3870   -3.7570    4.4130 c         1 MOL      0.761894
      3 O1         -0.2420   -4.2550    3.5050 o         1 MOL     -0.576912
      4 H1          0.3080   -4.3840    6.5250 hc        1 MOL      0.105656
      5 H2         -0.0300   -2.6550    6.2750 hc        1 MOL      0.105656
      6 H3         -1.2650   -3.8700    5.8690 hc        1 MOL      0.105656
      7 N1          1.6060   -3.3600    4.2140 n         1 MOL     -0.651958
      8 C3          2.2060   -3.1330    2.8360 c3        1 MOL      0.294909
      9 C4          2.3190   -4.3660    1.9770 c         1 MOL      0.541476
     10 O2          2.8190   -5.3990    2.4670 o         1 MOL     -0.579784
     11 C5          3.6060   -2.4660    3.0170 c3        1 MOL     -0.377029
     12 C6          4.2730   -2.3390    1.6090 c         1 MOL      0.754288
     13 O3          3.6240   -1.8710    0.6690 o         1 MOL     -0.638986
     14 O4          5.4310   -2.8130    1.5230 o         1 MOL     -0.638986
     15 H4          2.1300   -2.9360    4.9620 hn        1 MOL      0.316910
     16 H5          1.5590   -2.4520    2.2720 h1        1 MOL     -0.043228
     17 H6          4.2520   -3.0240    3.6910 hc        1 MOL      0.064356
     18 H7          3.5050   -1.4690    3.4330 hc        1 MOL      0.064356
     19 N2          2.0880   -4.2040    0.6620 n         1 MOL     -0.467404
     20 C7          2.2770   -5.1850   -0.3720 c3        1 MOL      0.418670
     21 C8          3.4000   -4.9580   -1.4550 c         1 MOL      0.286572
     22 O5          3.6360   -5.9080   -2.2120 o         1 MOL     -0.539613
     23 C9          0.9090   -5.4790   -0.9340 c3        1 MOL     -0.257257
     24 H8          1.8610   -3.2720    0.3480 hn        1 MOL      0.301024
     25 H9          2.6250   -6.1040    0.0950 h1        1 MOL     -0.013493
     26 H10         0.9660   -6.1450   -1.8010 hc        1 MOL      0.049561
     27 H11         0.2560   -5.9280   -0.1850 hc        1 MOL      0.049561
     28 H12         0.4300   -4.5370   -1.2050 hc        1 MOL      0.049561
     29 N3          3.9750   -3.7130   -1.6600 n         1 MOL     -0.043728
     30 C10         4.9670   -3.3600   -2.6980 c3        1 MOL      0.139351
     31 C11         6.2100   -2.6360   -2.2630 c         1 MOL      0.258015
     32 O6          7.2490   -2.6350   -2.9530 o         1 MOL     -0.558006
     33 C12         4.1990   -2.5620   -3.7700 c3        1 MOL     -0.209398
     34 C13         3.2010   -1.5000   -3.3250 c         1 MOL      0.632402
     35 O7          2.1790   -1.3590   -4.0770 o         1 MOL     -0.646352
     36 O8          3.3230   -0.9060   -2.2470 o         1 MOL     -0.646352
     37 H13         3.8560   -2.8980   -1.0680 hn        1 MOL      0.040930
     38 H14         5.3360   -4.3380   -3.0250 h1        1 MOL      0.039261
     39 H15         3.6960   -3.3030   -4.3960 hc        1 MOL      0.039700
     40 H16         4.9780   -2.1470   -4.4120 hc        1 MOL      0.039700
     41 N4          6.1020   -2.0260   -1.1140 n         1 MOL      0.218016
     42 C14         7.1750   -1.1980   -0.5960 c3        1 MOL     -0.314809
     43 C15         7.1470    0.2920   -1.1410 c         1 MOL      0.606238
     44 O9          8.1930    0.8910   -1.0120 o         1 MOL     -0.607389
     45 H17         5.2910   -2.2360   -0.5400 hn        1 MOL     -0.120474
     46 H18         8.1610   -1.6170   -0.7960 h1        1 MOL      0.115881
     47 H19         6.9960   -1.0600    0.4750 h1        1 MOL      0.115881
     48 N5          5.9980    0.7310   -1.6560 n         1 MOL     -0.264142
     49 C16         5.9490    2.1640   -2.1210 c3        1 MOL     -0.272864
     50 C17         5.9820    3.2300   -1.0040 c         1 MOL      0.494241
     51 O10         5.7220    4.3910   -1.2600 o         1 MOL     -0.483391
     52 C18         4.7820    2.3140   -3.1460 c3        1 MOL      0.168429
     53 C19         3.3870    2.1180   -2.6430 c         1 MOL      0.356438
     54 N6          2.4440    2.2110   -3.5790 n         1 MOL     -0.478484
     55 O11         3.1480    2.0310   -1.4380 o         1 MOL     -0.630305
     56 H20         5.2700    0.0750   -1.8980 hn        1 MOL      0.198263
     57 H21         6.8720    2.3230   -2.6680 h1        1 MOL      0.147369
     58 H22         4.9700    1.5780   -3.9250 hc        1 MOL      0.014894
     59 H23         4.8560    3.1660   -3.8160 hc        1 MOL      0.014894
     60 H24         2.6190    2.4630   -4.5370 hn        1 MOL      0.304479
     61 H25         1.4730    2.1770   -3.2950 hn        1 MOL      0.304479
     62 N7          6.2950    2.8880    0.2640 n         1 MOL     -0.274597
     63 C20         6.3300    3.8050    1.4280 c3        1 MOL     -0.143323
     64 C21         4.9940    4.5000    1.7710 c         1 MOL      0.529278
     65 O12         5.0420    5.5900    2.3650 o         1 MOL     -0.587698
     66 H26         6.5330    1.9150    0.3980 hn        1 MOL      0.266525
     67 H27         7.1560    4.5150    1.3040 h1        1 MOL      0.089399
     68 H28         6.4940    3.2220    2.3270 h1        1 MOL      0.089399
     69 N8          3.8590    3.9930    1.3660 n         1 MOL     -0.178345
     70 C22         2.4880    4.5890    1.4100 c3        1 MOL     -0.215326
     71 C23         1.4100    3.5400    1.6210 c         1 MOL      0.524404
     72 O13         1.6510    2.3850    1.0870 o         1 MOL     -0.528187
     73 C24         2.0770    5.2730    0.0770 c3        1 MOL      0.526275
     74 C25         2.6200    6.6480   -0.1340 c3        1 MOL     -0.468262
     75 O14         2.4780    4.5610   -1.0310 oh        1 MOL     -0.618625
     76 H29         3.8780    3.0220    1.0520 hn        1 MOL      0.123998
     77 H30         2.5190    5.3150    2.2220 h1        1 MOL      0.103180
     78 H31         0.9980    5.3580    0.0850 h1        1 MOL     -0.015454
     79 H32         2.5450    3.6170   -0.8530 ho        1 MOL      0.409417
     80 H33         3.6950    6.6200    0.0360 hc        1 MOL      0.116179
     81 H34         2.4270    7.0120   -1.1420 hc        1 MOL      0.116179
     82 H35         2.0930    7.3440    0.5200 hc        1 MOL      0.116179
     83 N9          0.2160    3.8160    2.2360 n         1 MOL     -0.611191
     84 C26        -0.8310    2.8290    2.2900 c3        1 MOL     -0.043361
     85 C27        -1.6240    3.0600    0.9270 c         1 MOL      0.575756
     86 O15        -2.1360    4.1380    0.6870 o         1 MOL     -0.581831
     87 C28        -1.7880    2.9120    3.4510 c3        1 MOL      0.268258
     88 C29        -0.8760    2.8350    4.7560 c3        1 MOL     -0.062690
     89 C30        -2.8360    1.7890    3.3410 c3        1 MOL     -0.182268
     90 C31        -1.6770    2.5910    6.1020 c3        1 MOL     -0.265823
     91 H36         0.0360    4.7190    2.6360 hn        1 MOL      0.348803
     92 H37        -0.3770    1.8440    2.3290 h1        1 MOL      0.115999
     93 H38        -2.2550    3.8980    3.4210 hc        1 MOL     -0.044760
     94 H39        -0.2210    3.6910    4.9310 hc        1 MOL      0.029410
     95 H40        -0.3110    1.9160    4.6200 hc        1 MOL      0.029410
     96 H41        -3.6620    1.9120    4.0420 hc        1 MOL      0.037821
     97 H42        -3.3280    1.9210    2.3770 hc        1 MOL      0.037821
     98 H43        -2.3960    0.7980    3.4320 hc        1 MOL      0.037821
     99 H44        -1.0280    2.5850    6.9760 hc        1 MOL      0.066750
    100 H45        -2.4040    3.4000    6.0830 hc        1 MOL      0.066750
    101 H46        -2.1500    1.6090    6.1770 hc        1 MOL      0.066750
    102 N10        -1.7450    1.9710    0.1150 n         1 MOL     -0.153144
    103 C32        -2.6570    1.8640   -1.0710 c3        1 MOL      0.002828
    104 C33        -4.0510    1.4290   -0.7620 c         1 MOL      0.419938
    105 O16        -4.3040    0.7580    0.2020 o         1 MOL     -0.279209
    106 C34        -2.0010    0.9390   -2.1320 c3        1 MOL     -0.165039
    107 C35        -0.5600    1.3640   -2.4830 c         1 MOL      0.743277
    108 O17         0.3720    0.9690   -1.7880 o         1 MOL     -0.678133
    109 O18        -0.3250    1.9600   -3.5010 o         1 MOL     -0.678133
    110 H47        -1.1790    1.1690    0.3380 hn        1 MOL     -0.017574
    111 H48        -2.6730    2.8710   -1.4690 h1        1 MOL      0.055086
    112 H49        -2.5540    1.1640   -3.0460 hc        1 MOL      0.059698
    113 H50        -2.0080   -0.1170   -1.9010 hc        1 MOL      0.059698
    114 N11        -5.0340    1.7190   -1.6240 n         1 MOL     -0.614955
    115 C36        -6.5160    1.2740   -1.3700 c3        1 MOL      0.374856
    116 C37        -6.6420   -0.2600   -1.0910 c         1 MOL      0.211833
    117 O19        -7.2820   -0.5740   -0.0400 o         1 MOL     -0.481369
    118 C38        -7.3620    1.7360   -2.5410 c3        1 MOL     -0.426886
    119 C39        -8.7820    1.6750   -2.1760 ca        1 MOL      0.233906
    120 C40        -9.3940    2.6300   -1.3210 ca        1 MOL     -0.205927
    121 C41        -9.5410    0.7310   -2.8850 ca        1 MOL     -0.205927
    122 C42       -10.7800    2.6130   -1.0990 ca        1 MOL     -0.134007
    123 C43       -10.9610    0.7030   -2.6180 ca        1 MOL     -0.134007
    124 C44       -11.5530    1.5910   -1.7020 ca        1 MOL     -0.091960
    125 H51        -4.8210    2.2800   -2.4350 hn        1 MOL      0.336951
    126 H52        -6.8760    1.8030   -0.4890 h1        1 MOL      0.052763
    127 H53        -7.1350    1.1830   -3.4570 hc        1 MOL      0.117221
    128 H54        -7.0890    2.7830   -2.6510 hc        1 MOL      0.117221
    129 H55        -8.7670    3.4060   -0.9180 ha        1 MOL      0.139812
    130 H56        -9.1140   -0.0300   -3.5100 ha        1 MOL      0.139812
    131 H57       -11.3290    3.3680   -0.5670 ha        1 MOL      0.117720
    132 H58       -11.6420   -0.0650   -2.9560 ha        1 MOL      0.117720
    133 H59       -12.6060    1.4370   -1.5070 ha        1 MOL      0.098267
    134 N12        -6.0610   -1.2140   -1.8490 n         1 MOL      0.018330
    135 C45        -6.0750   -2.6330   -1.4680 c3        1 MOL     -0.073809
    136 C46        -5.3570   -3.0070   -0.0890 c         1 MOL      0.222126
    137 O20        -5.6330   -4.0910    0.4810 o         1 MOL     -0.496122
    138 C47        -5.2390   -3.4390   -2.5840 c3        1 MOL     -0.100388
    139 C48        -5.3650   -2.5300   -3.8060 c3        1 MOL     -0.094968
    140 C49        -5.3660   -1.1130   -3.1510 c3        1 MOL      0.154817
    141 H60        -7.1000   -3.0010   -1.4710 h1        1 MOL      0.102886
    142 H61        -4.1830   -3.4950   -2.2940 hc        1 MOL      0.082038
    143 H62        -5.5590   -4.4270   -2.8970 hc        1 MOL      0.082038
    144 H63        -4.5130   -2.6730   -4.4680 hc        1 MOL      0.043331
    145 H64        -6.3660   -2.5960   -4.2420 hc        1 MOL      0.043331
    146 H65        -4.4220   -0.6050   -2.9620 h1        1 MOL     -0.025784
    147 H66        -5.9010   -0.4980   -3.8800 h1        1 MOL     -0.025784
    148 N13        -4.5460   -2.1110    0.4880 n         1 MOL      0.055828
    149 C50        -3.9550   -2.2610    1.7800 c3        1 MOL     -0.133080
    150 C51        -4.7840   -1.5000    2.8730 c         1 MOL      0.429524
    151 O21        -4.6260   -1.8740    4.0760 o         1 MOL     -0.581801
    152 C52        -2.5180   -1.7860    1.7510 c3        1 MOL     -0.075226
    153 C53        -1.5180   -2.4020    0.7180 c3        1 MOL      0.096292
    154 C54        -0.2920   -1.5550    0.4370 c         1 MOL      0.722220
    155 O22         0.6480   -1.9460   -0.2710 o         1 MOL     -0.790679
    156 O23        -0.1650   -0.4530    0.9720 o         1 MOL     -0.790679
    157 H67        -4.3190   -1.2170    0.0610 hn        1 MOL      0.049841
    158 H68        -3.8620   -3.3030    2.0930 h1        1 MOL      0.111102
    159 H69        -2.1100   -1.8860    2.7520 hc        1 MOL      0.066142
    160 H70        -2.5700   -0.6980    1.6530 hc        1 MOL      0.066142
    161 H71        -2.0320   -2.5920   -0.2250 hc        1 MOL      0.005507
    162 H72        -1.2260   -3.4060    1.0170 hc        1 MOL      0.005507
    163 N14        -5.6060   -0.5710    2.5360 n         1 MOL     -0.028013
    164 C55        -6.3580    0.1680    3.5400 c3        1 MOL     -0.128026
    165 H73        -6.1200   -0.2200    4.5300 h1        1 MOL      0.060406
    166 H74        -6.0920    1.2240    3.4910 h1        1 MOL      0.060406
    167 H75        -7.4260    0.0530    3.3520 h1        1 MOL      0.060406
    168 H76        -5.4300   -0.2540    1.5900 hn        1 MOL      0.038045
    169 Ca1         2.2150    0.0620   -0.1660 Ca        1 MOL      1.774660
    170 O24         3.8790    0.9140    1.8500 oh        1 MOL     -0.923016
    171 H77         4.6930    0.7950    2.3500 ho        1 MOL      0.445646
    172 H78         3.2010    1.0400    2.5200 ho        1 MOL      0.445646
@<TRIPOS>BOND
     1    1    2 1   
     2    1    4 1   
     3    1    5 1   
     4    1    6 1   
     5    2    3 2   
     6    2    7 1   
     7    7    8 1   
     8    7   15 1   
     9    8    9 1   
    10    8   11 1   
    11    8   16 1   
    12    9   10 2   
    13    9   19 1   
    14   11   12 1   
    15   11   17 1   
    16   11   18 1   
    17   12   13 1   
    18   12   14 1   
    19   19   20 1   
    20   19   24 1   
    21   20   21 1   
    22   20   23 1   
    23   20   25 1   
    24   21   22 2   
    25   21   29 1   
    26   23   26 1   
    27   23   27 1   
    28   23   28 1   
    29   29   30 1   
    30   29   37 1   
    31   30   31 1   
    32   30   33 1   
    33   30   38 1   
    34   31   32 2   
    35   31   41 1   
    36   33   34 1   
    37   33   39 1   
    38   33   40 1   
    39   34   35 1   
    40   34   36 1   
    41   41   42 1   
    42   41   45 1   
    43   42   43 1   
    44   42   46 1   
    45   42   47 1   
    46   43   44 2   
    47   43   48 1   
    48   48   49 1   
    49   48   56 1   
    50   49   50 1   
    51   49   52 1   
    52   49   57 1   
    53   50   51 2   
    54   50   62 1   
    55   52   53 1   
    56   52   58 1   
    57   52   59 1   
    58   53   54 1   
    59   53   55 2   
    60   54   60 1   
    61   54   61 1   
    62   62   63 1   
    63   62   66 1   
    64   63   64 1   
    65   63   67 1   
    66   63   68 1   
    67   64   65 2   
    68   64   69 1   
    69   69   70 1   
    70   69   76 1   
    71   70   71 1   
    72   70   73 1   
    73   70   77 1   
    74   71   72 2   
    75   71   83 1   
    76   73   74 1   
    77   73   75 1   
    78   73   78 1   
    79   74   80 1   
    80   74   81 1   
    81   74   82 1   
    82   75   79 1   
    83   83   84 1   
    84   83   91 1   
    85   84   85 1   
    86   84   87 1   
    87   84   92 1   
    88   85   86 2   
    89   85  102 1   
    90   87   88 1   
    91   87   89 1   
    92   87   93 1   
    93   88   90 1   
    94   88   94 1   
    95   88   95 1   
    96   89   96 1   
    97   89   97 1   
    98   89   98 1   
    99   90   99 1   
   100   90  100 1   
   101   90  101 1   
   102  102  103 1   
   103  102  110 1   
   104  103  104 1   
   105  103  106 1   
   106  103  111 1   
   107  104  105 2   
   108  104  114 1   
   109  106  107 1   
   110  106  112 1   
   111  106  113 1   
   112  107  108 1   
   113  107  109 1   
   114  114  115 1   
   115  114  125 1   
   116  115  116 1   
   117  115  118 1   
   118  115  126 1   
   119  116  117 2   
   120  116  134 1   
   121  118  119 1   
   122  118  127 1   
   123  118  128 1   
   124  119  120 ar  
   125  119  121 ar  
   126  120  122 ar  
   127  120  129 1   
   128  121  123 ar  
   129  121  130 1   
   130  122  124 ar  
   131  122  131 1   
   132  123  124 ar  
   133  123  132 1   
   134  124  133 1   
   135  134  135 1   
   136  134  140 1   
   137  135  136 1   
   138  135  138 1   
   139  135  141 1   
   140  136  137 2   
   141  136  148 1   
   142  138  139 1   
   143  138  142 1   
   144  138  143 1   
   145  139  140 1   
   146  139  144 1   
   147  139  145 1   
   148  140  146 1   
   149  140  147 1   
   150  148  149 1   
   151  148  157 1   
   152  149  150 1   
   153  149  152 1   
   154  149  158 1   
   155  150  151 2   
   156  150  163 1   
   157  152  153 1   
   158  152  159 1   
   159  152  160 1   
   160  153  154 1   
   161  153  161 1   
   162  153  162 1   
   163  154  155 1   
   164  154  156 1   
   165  163  164 1   
   166  163  168 1   
   167  164  165 1   
   168  164  166 1   
   169  164  167 1   
   170  170  171 1   
   171  170  172 1   
@<TRIPOS>SUBSTRUCTURE
     1 MOL         1 TEMP              0 ****  ****    0 ROOT
