@<TRIPOS>MOLECULE
MOL
  183   181     1     0     0
SMALL
resp


@<TRIPOS>ATOM
      1 C1         -1.2950    1.1010    6.5010 c3        1 MOL     -0.235197
      2 C2         -1.5690    1.1070    5.0380 c         1 MOL      0.824796
      3 O1         -0.6710    1.3660    4.2600 o         1 MOL     -0.622494
      4 H1         -0.9520    0.1110    6.8020 hc        1 MOL      0.043650
      5 H2         -0.5250    1.8380    6.7310 hc        1 MOL      0.043650
      6 H3         -2.2080    1.3490    7.0440 hc        1 MOL      0.043650
      7 N1         -2.7650    0.7410    4.5840 n         1 MOL     -0.787065
      8 C3         -3.1600    0.7460    3.1380 c3        1 MOL      0.494474
      9 C4         -3.5480    2.2110    2.8290 c         1 MOL      0.407386
     10 O2         -4.4890    2.7480    3.4510 o         1 MOL     -0.595662
     11 C5         -4.2680   -0.2400    2.8730 c3        1 MOL     -0.411559
     12 C6         -4.7740   -0.1780    1.4330 c         1 MOL      0.834182
     13 O3         -5.7450   -0.8840    1.1040 o         1 MOL     -0.638758
     14 O4         -4.2100    0.5240    0.5610 o         1 MOL     -0.638758
     15 H4         -3.4820    0.4590    5.2500 hn        1 MOL      0.348500
     16 H5         -2.3170    0.4380    2.5150 h1        1 MOL     -0.073879
     17 H6         -5.0860   -0.0300    3.5650 hc        1 MOL      0.062005
     18 H7         -3.7790   -1.1810    3.1230 hc        1 MOL      0.062005
     19 N2         -2.7150    2.8580    2.0250 n         1 MOL     -0.077092
     20 C7         -2.8020    4.3160    1.7530 c3        1 MOL     -0.023880
     21 C8         -3.8330    4.7090    0.6690 c         1 MOL      0.386618
     22 O5         -4.4870    5.7350    0.7630 o         1 MOL     -0.561623
     23 C9         -1.3380    4.8570    1.4880 c3        1 MOL      0.145134
     24 C10        -0.4110    4.5950    2.7930 c3        1 MOL      0.139724
     25 C11        -1.1870    6.3980    1.2280 c3        1 MOL     -0.256232
     26 C12        -0.8600    5.2670    4.0910 c3        1 MOL     -0.370914
     27 H8         -2.0450    2.3450    1.4760 hn        1 MOL      0.174286
     28 H9         -3.1490    4.6920    2.7180 h1        1 MOL      0.049527
     29 H10        -0.9610    4.2610    0.6550 hc        1 MOL     -0.006713
     30 H11         0.6230    4.8380    2.5880 hc        1 MOL      0.000923
     31 H12        -0.4070    3.5230    2.9980 hc        1 MOL      0.000923
     32 H13        -1.4290    6.5170    0.1730 hc        1 MOL      0.055242
     33 H14        -1.8290    7.0610    1.8150 hc        1 MOL      0.055242
     34 H15        -0.1330    6.6850    1.3240 hc        1 MOL      0.055242
     35 H16        -0.0610    5.0940    4.8150 hc        1 MOL      0.074247
     36 H17        -1.0830    6.3290    3.9910 hc        1 MOL      0.074247
     37 H18        -1.7830    4.7420    4.3200 hc        1 MOL      0.074247
     38 N3         -3.9750    3.9410   -0.4200 n         1 MOL     -0.142449
     39 C13        -4.8300    4.0700   -1.6010 c3        1 MOL      0.150101
     40 C14        -6.1280    3.1920   -1.5960 c         1 MOL      0.410916
     41 O6         -6.9660    3.4590   -2.4850 o         1 MOL     -0.559091
     42 C15        -4.0050    3.9530   -2.8930 c3        1 MOL     -0.279795
     43 C16        -3.0830    2.7740   -2.8780 c         1 MOL      0.858869
     44 O7         -2.3280    2.5160   -3.8770 o         1 MOL     -0.755943
     45 O8         -3.0730    1.9390   -1.9920 o         1 MOL     -0.755943
     46 H19        -3.6410    2.9940   -0.2970 hn        1 MOL     -0.045535
     47 H20        -5.2510    5.0770   -1.5280 h1        1 MOL      0.035466
     48 H21        -3.4670    4.8920   -3.0360 hc        1 MOL      0.067096
     49 H22        -4.6330    3.8170   -3.7830 hc        1 MOL      0.067096
     50 N4         -6.3680    2.2740   -0.6890 n         1 MOL     -0.081286
     51 C17        -7.6610    1.4770   -0.5500 c3        1 MOL     -0.277123
     52 C18        -7.7990    0.3670   -1.5550 c         1 MOL      0.679681
     53 O9         -8.6450    0.3620   -2.5160 o         1 MOL     -0.601183
     54 H23        -5.5900    2.0310   -0.0920 hn        1 MOL      0.123234
     55 H24        -8.4600    2.1860   -0.7680 h1        1 MOL      0.096948
     56 H25        -7.7860    1.0870    0.4570 h1        1 MOL      0.096948
     57 N5         -6.9790   -0.6990   -1.4110 n         1 MOL     -0.487841
     58 C19        -7.0920   -1.9280   -2.3110 c3        1 MOL      0.117160
     59 C20        -7.0300   -3.2340   -1.5530 c         1 MOL      0.332268
     60 O10        -7.2050   -4.3160   -2.0510 o         1 MOL     -0.529938
     61 C21        -6.0010   -1.9020   -3.3280 c3        1 MOL     -0.155953
     62 C22        -4.6760   -1.4180   -2.6490 c         1 MOL      0.753049
     63 O11        -3.8040   -0.7590   -3.2410 o         1 MOL     -0.730228
     64 O12        -4.3390   -1.8280   -1.5280 o         1 MOL     -0.730228
     65 H26        -6.2390   -0.6900   -0.7310 hn        1 MOL      0.234831
     66 H27        -7.9860   -1.9360   -2.9340 h1        1 MOL      0.080126
     67 H28        -6.3290   -1.1230   -4.0230 hc        1 MOL      0.045817
     68 H29        -5.8480   -2.8470   -3.8390 hc        1 MOL      0.045817
     69 N6         -6.7170   -3.1630   -0.2190 n         1 MOL     -0.179618
     70 C23        -6.7120   -4.3230    0.7580 c3        1 MOL      0.056356
     71 C24        -5.3110   -4.6200    1.3570 c         1 MOL      0.447586
     72 O13        -5.1910   -5.5730    2.1100 o         1 MOL     -0.573262
     73 H30        -6.4860   -2.2940    0.2390 hn        1 MOL      0.132710
     74 H31        -7.0840   -5.1370    0.1380 h1        1 MOL      0.027071
     75 H32        -7.5140   -4.1170    1.4680 h1        1 MOL      0.027071
     76 N7         -4.2850   -3.8830    0.8640 n         1 MOL     -0.127886
     77 C25        -2.8830   -4.3340    1.0140 c3        1 MOL      0.046812
     78 C26        -1.9570   -3.1490    1.1840 c         1 MOL      0.493601
     79 O14        -2.2800   -1.9530    1.0500 o         1 MOL     -0.518541
     80 C27        -2.4110   -5.2400   -0.1760 c3        1 MOL      0.041523
     81 C28        -2.8320   -4.7910   -1.5810 c3        1 MOL     -0.197372
     82 C29        -2.0270   -3.6820   -2.2420 c         1 MOL      0.630850
     83 N8         -1.7690   -3.8440   -3.5150 n         1 MOL     -0.753787
     84 O15        -1.6060   -2.6890   -1.6740 o         1 MOL     -0.580258
     85 H33        -4.5070   -3.0100    0.4100 hn        1 MOL      0.054044
     86 H34        -2.8040   -5.0110    1.8690 h1        1 MOL      0.055486
     87 H35        -2.8710   -6.2220   -0.0490 hc        1 MOL     -0.000246
     88 H36        -1.3460   -5.4550   -0.1590 hc        1 MOL     -0.000246
     89 H37        -3.9130   -4.6950   -1.5290 hc        1 MOL      0.075093
     90 H38        -2.7880   -5.6760   -2.2150 hc        1 MOL      0.075093
     91 H39        -1.9120   -4.6650   -4.0870 hn        1 MOL      0.349749
     92 H40        -1.3820   -3.0430   -4.0030 hn        1 MOL      0.349749
     93 N9         -0.7240   -3.4340    1.6210 n         1 MOL     -0.524503
     94 C30         0.4560   -2.6470    1.9560 c3        1 MOL     -0.017249
     95 C31         1.6070   -3.0830    1.1440 c         1 MOL      0.579855
     96 O16         2.1440   -4.1550    1.4170 o         1 MOL     -0.601067
     97 C32         0.6570   -2.7170    3.4410 c3        1 MOL      0.280004
     98 C33         1.9430   -2.0810    3.9210 c3        1 MOL     -0.450463
     99 C34        -0.5130   -2.1170    4.2160 c3        1 MOL     -0.450463
    100 H41        -0.4990   -4.4160    1.5880 hn        1 MOL      0.276179
    101 H42         0.1180   -1.6470    1.6700 h1        1 MOL      0.100928
    102 H43         0.7940   -3.7590    3.7430 hc        1 MOL     -0.009906
    103 H44         2.1650   -1.1110    3.4630 hc        1 MOL      0.111717
    104 H45         1.9050   -1.8470    4.9820 hc        1 MOL      0.111717
    105 H46         2.7430   -2.6940    3.4880 hc        1 MOL      0.111717
    106 H47        -0.5990   -1.0370    4.0800 hc        1 MOL      0.111717
    107 H48        -1.4940   -2.5800    4.0910 hc        1 MOL      0.111717
    108 H49        -0.3060   -2.1980    5.2790 hc        1 MOL      0.111717
    109 N10         1.9290   -2.3610    0.0390 n         1 MOL     -0.241143
    110 C35         3.0470   -2.6800   -0.8980 c3        1 MOL      0.056870
    111 C36         4.2830   -2.0020   -0.4910 c         1 MOL      0.550669
    112 O17         4.1740   -1.0380    0.2980 o         1 MOL     -0.502338
    113 C37         2.5890   -2.3520   -2.3180 c3        1 MOL     -0.338874
    114 C38         3.1080   -1.0190   -2.8350 c         1 MOL      0.616378
    115 N11         2.3820    0.0110   -2.8030 n         1 MOL     -0.726727
    116 O18         4.2360   -0.8950   -3.3420 o         1 MOL     -0.619633
    117 H50         1.3270   -1.5660   -0.1480 hn        1 MOL      0.100552
    118 H51         3.2230   -3.7630   -0.8830 h1        1 MOL      0.046786
    119 H52         1.5050   -2.3500   -2.4050 hc        1 MOL      0.123052
    120 H53         2.9060   -3.1400   -3.0040 hc        1 MOL      0.123052
    121 H54         1.5630    0.0160   -2.2140 hn        1 MOL      0.399631
    122 H55         2.7240    0.8040   -3.3310 hn        1 MOL      0.399631
    123 N12         5.4830   -2.3550   -0.9930 n         1 MOL     -0.610526
    124 C39         6.7450   -1.8560   -0.5030 c3        1 MOL      0.258044
    125 C40         6.8710   -0.3460   -0.5450 c         1 MOL      0.646163
    126 O19         7.4380    0.1950    0.3990 o         1 MOL     -0.541311
    127 C41         7.9120   -2.4280   -1.3330 c3        1 MOL     -0.326917
    128 C42         9.2670   -2.0500   -0.6850 ca        1 MOL      0.172458
    129 C43         9.6370   -2.7290    0.4980 ca        1 MOL     -0.271637
    130 C44        10.2020   -1.1620   -1.3150 ca        1 MOL     -0.271637
    131 C45        10.8860   -2.5160    1.1580 ca        1 MOL     -0.176280
    132 C46        11.4200   -0.9440   -0.6800 ca        1 MOL     -0.176280
    133 C47        11.7710   -1.6270    0.5260 ca        1 MOL      0.268230
    134 O20        12.8960   -1.2320    1.1410 oh        1 MOL     -0.517323
    135 H56         5.5610   -3.1910   -1.5630 hn        1 MOL      0.307540
    136 H57         6.8370   -2.1500    0.5360 h1        1 MOL      0.031866
    137 H58         7.8580   -2.0060   -2.3330 hc        1 MOL      0.107325
    138 H59         7.8610   -3.5110   -1.3470 hc        1 MOL      0.107325
    139 H60         8.9060   -3.3180    1.0390 ha        1 MOL      0.166892
    140 H61         9.9590   -0.5960   -2.2040 ha        1 MOL      0.166892
    141 H62        11.0870   -2.9280    2.1290 ha        1 MOL      0.131167
    142 H63        12.0510   -0.2350   -1.1950 ha        1 MOL      0.131167
    143 H64        13.1340   -0.3490    0.8430 ho        1 MOL      0.377445
    144 N13         6.1910    0.3360   -1.4870 n         1 MOL     -0.537674
    145 C48         6.0580    1.8090   -1.4480 c3        1 MOL      0.043127
    146 C49         5.3160    2.3620   -0.2740 c         1 MOL      0.322610
    147 O21         5.6830    3.3630    0.2720 o         1 MOL     -0.509879
    148 C50         5.4710    2.3120   -2.8180 c3        1 MOL      0.069285
    149 C51         5.8410    3.7810   -3.0410 c3        1 MOL     -0.354905
    150 C52         5.5450    4.1080   -4.4970 c         1 MOL      0.743014
    151 O22         4.3150    4.1570   -4.7490 o         1 MOL     -0.754023
    152 O23         6.3890    4.2940   -5.3870 o         1 MOL     -0.754023
    153 H65         5.5100   -0.1390   -2.0590 hn        1 MOL      0.265065
    154 H66         7.0490    2.2530   -1.3300 h1        1 MOL      0.086169
    155 H67         4.3860    2.2360   -2.8370 hc        1 MOL      0.043049
    156 H68         5.9110    1.6800   -3.5880 hc        1 MOL      0.043049
    157 H69         6.8640    4.0910   -2.8360 hc        1 MOL      0.064147
    158 H70         5.1870    4.4760   -2.5060 hc        1 MOL      0.064147
    159 N14         4.2050    1.7120    0.1770 n         1 MOL     -0.099720
    160 C53         3.4800    2.0270    1.4470 c3        1 MOL     -0.302533
    161 C54         4.1930    1.5370    2.7280 c         1 MOL      0.554623
    162 O24         3.9070    1.9630    3.8290 o         1 MOL     -0.565078
    163 C55         2.1320    1.3140    1.3990 c3        1 MOL     -0.034082
    164 C56         1.2820    1.8380    0.2580 c3        1 MOL      0.123007
    165 C57         0.0900    0.9480    0.1350 c         1 MOL      0.445005
    166 O25        -1.0350    1.3990    0.4020 o         1 MOL     -0.544950
    167 O26         0.1390   -0.2470   -0.3400 o         1 MOL     -0.544950
    168 H71         3.8860    0.9710   -0.4370 hn        1 MOL      0.283483
    169 H72         3.3760    3.1010    1.5680 h1        1 MOL      0.158599
    170 H73         1.6100    1.3810    2.3490 hc        1 MOL      0.065225
    171 H74         2.3010    0.2410    1.2790 hc        1 MOL      0.065225
    172 H75         1.8310    1.9520   -0.6760 hc        1 MOL     -0.052430
    173 H76         0.8900    2.7870    0.6050 hc        1 MOL     -0.052430
    174 N15         5.2000    0.6290    2.5560 n         1 MOL     -0.124532
    175 C58         6.0840    0.0380    3.5400 c3        1 MOL     -0.269018
    176 H77         5.4940   -0.5070    4.2780 h1        1 MOL      0.088554
    177 H78         6.7710   -0.6490    3.0460 h1        1 MOL      0.088554
    178 H79         6.6510    0.8240    4.0390 h1        1 MOL      0.088554
    179 H80         5.4980    0.4510    1.6130 hn        1 MOL      0.136359
    180 Ca1        -2.4030   -0.3140   -0.9630 Ca        1 MOL      1.764217
    181 O27        -0.8940    0.1350   -3.2670 oh        1 MOL     -0.885957
    182 H81        -0.6220   -0.4000   -4.0190 ho        1 MOL      0.407225
    183 H82        -1.2760    0.9240   -3.6610 ho        1 MOL      0.407225
@<TRIPOS>BOND
     1    1    2 1   
     2    1    4 1   
     3    1    5 1   
     4    1    6 1   
     5    2    3 2   
     6    2    7 1   
     7    7    8 1   
     8    7   15 1   
     9    8    9 1   
    10    8   11 1   
    11    8   16 1   
    12    9   10 2   
    13    9   19 1   
    14   11   12 1   
    15   11   17 1   
    16   11   18 1   
    17   12   13 1   
    18   12   14 1   
    19   19   20 1   
    20   19   27 1   
    21   20   21 1   
    22   20   23 1   
    23   20   28 1   
    24   21   22 2   
    25   21   38 1   
    26   23   24 1   
    27   23   25 1   
    28   23   29 1   
    29   24   26 1   
    30   24   30 1   
    31   24   31 1   
    32   25   32 1   
    33   25   33 1   
    34   25   34 1   
    35   26   35 1   
    36   26   36 1   
    37   26   37 1   
    38   38   39 1   
    39   38   46 1   
    40   39   40 1   
    41   39   42 1   
    42   39   47 1   
    43   40   41 2   
    44   40   50 1   
    45   42   43 1   
    46   42   48 1   
    47   42   49 1   
    48   43   44 1   
    49   43   45 1   
    50   50   51 1   
    51   50   54 1   
    52   51   52 1   
    53   51   55 1   
    54   51   56 1   
    55   52   53 2   
    56   52   57 1   
    57   57   58 1   
    58   57   65 1   
    59   58   59 1   
    60   58   61 1   
    61   58   66 1   
    62   59   60 2   
    63   59   69 1   
    64   61   62 1   
    65   61   67 1   
    66   61   68 1   
    67   62   63 1   
    68   62   64 1   
    69   69   70 1   
    70   69   73 1   
    71   70   71 1   
    72   70   74 1   
    73   70   75 1   
    74   71   72 2   
    75   71   76 1   
    76   76   77 1   
    77   76   85 1   
    78   77   78 1   
    79   77   80 1   
    80   77   86 1   
    81   78   79 2   
    82   78   93 1   
    83   80   81 1   
    84   80   87 1   
    85   80   88 1   
    86   81   82 1   
    87   81   89 1   
    88   81   90 1   
    89   82   83 1   
    90   82   84 2   
    91   83   91 1   
    92   83   92 1   
    93   93   94 1   
    94   93  100 1   
    95   94   95 1   
    96   94   97 1   
    97   94  101 1   
    98   95   96 2   
    99   95  109 1   
   100   97   98 1   
   101   97   99 1   
   102   97  102 1   
   103   98  103 1   
   104   98  104 1   
   105   98  105 1   
   106   99  106 1   
   107   99  107 1   
   108   99  108 1   
   109  109  110 1   
   110  109  117 1   
   111  110  111 1   
   112  110  113 1   
   113  110  118 1   
   114  111  112 2   
   115  111  123 1   
   116  113  114 1   
   117  113  119 1   
   118  113  120 1   
   119  114  115 1   
   120  114  116 2   
   121  115  121 1   
   122  115  122 1   
   123  123  124 1   
   124  123  135 1   
   125  124  125 1   
   126  124  127 1   
   127  124  136 1   
   128  125  126 2   
   129  125  144 1   
   130  127  128 1   
   131  127  137 1   
   132  127  138 1   
   133  128  129 ar  
   134  128  130 ar  
   135  129  131 ar  
   136  129  139 1   
   137  130  132 ar  
   138  130  140 1   
   139  131  133 ar  
   140  131  141 1   
   141  132  133 ar  
   142  132  142 1   
   143  133  134 1   
   144  134  143 1   
   145  144  145 1   
   146  144  153 1   
   147  145  146 1   
   148  145  148 1   
   149  145  154 1   
   150  146  147 2   
   151  146  159 1   
   152  148  149 1   
   153  148  155 1   
   154  148  156 1   
   155  149  150 1   
   156  149  157 1   
   157  149  158 1   
   158  150  151 1   
   159  150  152 1   
   160  159  160 1   
   161  159  168 1   
   162  160  161 1   
   163  160  163 1   
   164  160  169 1   
   165  161  162 2   
   166  161  174 1   
   167  163  164 1   
   168  163  170 1   
   169  163  171 1   
   170  164  165 1   
   171  164  172 1   
   172  164  173 1   
   173  165  166 1   
   174  165  167 1   
   175  174  175 1   
   176  174  179 1   
   177  175  176 1   
   178  175  177 1   
   179  175  178 1   
   180  181  182 1   
   181  181  183 1   
@<TRIPOS>SUBSTRUCTURE
     1 MOL         1 TEMP              0 ****  ****    0 ROOT
