@<TRIPOS>MOLECULE
MOL
  179   176     1     0     0
SMALL
resp


@<TRIPOS>ATOM
      1 C1          0.1820    4.6390    5.2760 c3        1 MOL     -0.320569
      2 C2          0.0370    3.9640    3.9180 c         1 MOL      0.639295
      3 O1          0.9170    4.1180    3.0660 o         1 MOL     -0.593625
      4 H1          0.0910    5.7190    5.1570 hc        1 MOL      0.086247
      5 H2         -0.6010    4.2810    5.9450 hc        1 MOL      0.086247
      6 H3          1.1580    4.4010    5.6990 hc        1 MOL      0.086247
      7 N1         -1.1340    3.4090    3.6170 n         1 MOL     -0.440309
      8 C3         -1.4550    3.0380    2.2590 c3        1 MOL     -0.119601
      9 C4         -2.1610    4.1640    1.5210 c         1 MOL      0.502892
     10 O2         -3.3470    4.4320    1.8680 o         1 MOL     -0.510736
     11 C5         -2.2940    1.8090    2.1410 c3        1 MOL     -0.204801
     12 C6         -2.6200    1.1820    0.7920 c         1 MOL      0.816742
     13 O3         -2.1990    1.6880   -0.2600 o         1 MOL     -0.798280
     14 O4         -3.1100    0.0400    0.7090 o         1 MOL     -0.798280
     15 H4         -1.9130    3.3450    4.2730 hn        1 MOL      0.317941
     16 H5         -0.5010    2.8010    1.7820 h1        1 MOL      0.112996
     17 H6         -3.2750    2.0300    2.5670 hc        1 MOL      0.066200
     18 H7         -1.8110    1.0380    2.7400 hc        1 MOL      0.066200
     19 N2         -1.5770    4.7370    0.4900 n         1 MOL     -0.393857
     20 C7         -2.1240    6.0150   -0.1110 c3        1 MOL      0.064567
     21 C8         -3.2480    5.7880   -1.1130 c         1 MOL      0.332757
     22 O5         -4.3070    6.4820   -1.0580 o         1 MOL     -0.501944
     23 C9         -0.9280    6.8180   -0.6850 c3        1 MOL     -0.153200
     24 C10         0.1450    7.0790    0.4540 c3        1 MOL      0.127096
     25 C11         1.3430    7.7080   -0.2960 c3        1 MOL     -0.156892
     26 C12         2.5060    7.8430    0.6740 c3        1 MOL      0.047676
     27 N3          2.4860    9.0510    1.5360 n4        1 MOL     -0.408325
     28 H8         -0.6130    4.5600    0.2350 hn        1 MOL      0.323313
     29 H9         -2.6180    6.5630    0.6970 h1        1 MOL      0.080883
     30 H10        -1.2990    7.8060   -0.9500 hc        1 MOL      0.066405
     31 H11        -0.5450    6.2850   -1.5450 hc        1 MOL      0.066405
     32 H12         0.4970    6.1180    0.8390 hc        1 MOL     -0.000342
     33 H13        -0.2210    7.7200    1.2600 hc        1 MOL     -0.000342
     34 H14         1.0230    8.5970   -0.8350 hc        1 MOL      0.077653
     35 H15         1.6670    7.0140   -1.0670 hc        1 MOL      0.077653
     36 H16         3.4340    7.8770    0.1020 hx        1 MOL      0.100841
     37 H17         2.6390    6.9330    1.2680 hx        1 MOL      0.100841
     38 H18         2.1130    9.8780    1.0880 hn        1 MOL      0.339282
     39 H19         2.0050    8.7950    2.3850 hn        1 MOL      0.339282
     40 H20         3.3810    9.2450    1.9650 hn        1 MOL      0.339282
     41 N4         -3.1440    4.7660   -1.9600 n         1 MOL     -0.283999
     42 C13        -4.2320    4.2000   -2.8270 c3        1 MOL     -0.010346
     43 C14        -5.3200    3.4950   -1.9800 c         1 MOL      0.367930
     44 O6         -6.5230    3.4210   -2.2720 o         1 MOL     -0.523558
     45 C15        -3.5730    3.2810   -3.9020 c3        1 MOL     -0.225637
     46 C16        -2.8600    1.9820   -3.3280 c         1 MOL      0.809403
     47 O7         -1.6250    1.8790   -3.2910 o         1 MOL     -0.739929
     48 O8         -3.4810    1.0460   -2.8320 o         1 MOL     -0.739929
     49 H21        -2.2550    4.2940   -1.9370 hn        1 MOL      0.245488
     50 H22        -4.7040    5.0360   -3.3310 h1        1 MOL      0.126955
     51 H23        -2.7360    3.8050   -4.3780 hc        1 MOL      0.055353
     52 H24        -4.2280    3.0980   -4.7470 hc        1 MOL      0.055353
     53 N5         -4.9800    3.0350   -0.7420 n         1 MOL      0.141286
     54 C17        -6.0110    2.5860    0.1970 c3        1 MOL     -0.421017
     55 C18        -6.5340    1.1220    0.1220 c         1 MOL      0.565855
     56 O9         -7.5340    0.8220    0.7930 o         1 MOL     -0.575648
     57 H25        -4.0930    3.2140   -0.2890 hn        1 MOL      0.095456
     58 H26        -6.9280    3.1540    0.0360 h1        1 MOL      0.158480
     59 H27        -5.5920    2.7080    1.1930 h1        1 MOL      0.158480
     60 N6         -5.9350    0.2280   -0.6790 n         1 MOL     -0.191619
     61 C19        -6.3960   -1.1610   -0.7200 c3        1 MOL     -0.022999
     62 C20        -6.0120   -2.0400    0.5140 c         1 MOL      0.352097
     63 O10        -6.2700   -3.2340    0.5000 o         1 MOL     -0.457769
     64 C21        -5.9690   -1.9300   -1.9680 c3        1 MOL     -0.151943
     65 C22        -4.5610   -2.4470   -1.9860 c         1 MOL      0.802737
     66 N7         -4.2630   -3.2120   -2.9580 n         1 MOL     -0.740709
     67 O11        -3.6440   -2.0370   -1.2380 o         1 MOL     -0.791199
     68 H28        -5.1820    0.4790   -1.2990 hn        1 MOL      0.137648
     69 H29        -7.4770   -1.0990   -0.7350 h1        1 MOL      0.120616
     70 H30        -6.0850   -1.2060   -2.7740 hc        1 MOL      0.060084
     71 H31        -6.7140   -2.6990   -2.1640 hc        1 MOL      0.060084
     72 H32        -4.9620   -3.6010   -3.5780 hn        1 MOL      0.355000
     73 H33        -3.3110   -3.5300   -2.9740 hn        1 MOL      0.355000
     74 N8         -5.3930   -1.5670    1.5950 n         1 MOL     -0.279701
     75 C23        -5.0860   -2.4120    2.7960 c3        1 MOL     -0.064332
     76 C24        -3.8670   -3.2880    2.6680 c         1 MOL      0.458432
     77 O12        -3.7250   -4.2190    3.4670 o         1 MOL     -0.547324
     78 H34        -5.0830   -0.6010    1.5410 hn        1 MOL      0.259046
     79 H35        -5.9720   -2.9700    3.0940 h1        1 MOL      0.091117
     80 H36        -4.8670   -1.8200    3.6800 h1        1 MOL      0.091117
     81 N9         -2.9690   -3.0660    1.6400 n         1 MOL     -0.112825
     82 C25        -1.6210   -3.6850    1.5650 c3        1 MOL      0.271940
     83 C26        -0.5240   -2.7410    1.2300 c         1 MOL      0.063483
     84 O13        -0.7420   -1.8510    0.4260 o         1 MOL     -0.370151
     85 C27        -1.6130   -4.7880    0.5240 c3        1 MOL     -0.005623
     86 C28        -2.7130   -5.8190    0.6260 ca        1 MOL     -0.255189
     87 C29        -3.9560   -5.5790    0.0130 ca        1 MOL      0.075388
     88 C30        -2.5120   -7.0630    1.3440 ca        1 MOL      0.075388
     89 C31        -4.8810   -6.6570   -0.0570 ca        1 MOL     -0.416521
     90 C32        -3.4670   -8.1190    1.3220 ca        1 MOL     -0.416521
     91 C33        -4.6530   -7.9020    0.5930 ca        1 MOL      0.503876
     92 O14        -5.5190   -8.9390    0.3840 oh        1 MOL     -0.536517
     93 H37        -3.1150   -2.2200    1.1090 hn        1 MOL      0.134136
     94 H38        -1.3920   -4.1390    2.5270 h1        1 MOL     -0.014067
     95 H39        -0.5950   -5.1930    0.5200 hc        1 MOL      0.028768
     96 H40        -1.7720   -4.2650   -0.4230 hc        1 MOL      0.028768
     97 H41        -4.1140   -4.6150   -0.4510 ha        1 MOL      0.065375
     98 H42        -1.5330   -7.2900    1.7400 ha        1 MOL      0.065375
     99 H43        -5.7120   -6.4170   -0.7040 ha        1 MOL      0.165644
    100 H44        -3.1270   -8.9990    1.8320 ha        1 MOL      0.165644
    101 H45        -5.2870   -9.7050    0.9110 ho        1 MOL      0.373292
    102 N10         0.7230   -2.8980    1.7240 n         1 MOL     -0.226130
    103 C34         1.8640   -2.0290    1.3430 c3        1 MOL     -0.145063
    104 C35         3.0190   -2.9440    0.9510 c         1 MOL      0.536931
    105 O15         3.5280   -3.6740    1.7740 o         1 MOL     -0.521318
    106 C36         2.1940   -0.8060    2.2880 c3        1 MOL      0.065398
    107 C37         2.5830   -1.3100    3.7110 c3        1 MOL      0.189099
    108 C38         1.0110    0.2150    2.2900 c3        1 MOL     -0.428023
    109 C39         3.2870   -0.2350    4.5570 c3        1 MOL     -0.112553
    110 H46         0.8610   -3.6550    2.3800 hn        1 MOL      0.286944
    111 H47         1.6360   -1.5510    0.3950 h1        1 MOL      0.140899
    112 H48         3.0870   -0.4000    1.8200 hc        1 MOL     -0.073991
    113 H49         3.2310   -2.1750    3.6030 hc        1 MOL     -0.037454
    114 H50         1.6940   -1.7280    4.1850 hc        1 MOL     -0.037454
    115 H51         0.8450    0.6330    1.2980 hc        1 MOL      0.131370
    116 H52         0.0980   -0.2760    2.6430 hc        1 MOL      0.131370
    117 H53         1.1770    0.9740    3.0470 hc        1 MOL      0.131370
    118 H54         3.6600   -0.7140    5.4620 hc        1 MOL      0.014480
    119 H55         4.1940    0.1880    4.0990 hc        1 MOL      0.014480
    120 H56         2.6020    0.5180    4.9280 hc        1 MOL      0.014480
    121 N11         3.3880   -2.9790   -0.3540 n         1 MOL     -0.496539
    122 C40         4.5810   -3.6360   -0.8560 c3        1 MOL      0.206139
    123 C41         5.9180   -2.9690   -0.2870 c         1 MOL      0.250838
    124 O16         5.7640   -1.9230    0.3840 o         1 MOL     -0.317148
    125 C42         4.6850   -3.5100   -2.3720 c3        1 MOL     -0.195285
    126 O17         5.2490   -2.2780   -2.8260 oh        1 MOL     -0.417686
    127 H57         2.8730   -2.4020   -1.0000 hn        1 MOL      0.298884
    128 H58         4.7300   -4.6910   -0.6590 h1        1 MOL      0.051659
    129 H59         3.6690   -3.6440   -2.7360 h1        1 MOL      0.100697
    130 H60         5.4100   -4.2630   -2.6820 h1        1 MOL      0.100697
    131 H61         5.0780   -2.2230   -3.7590 ho        1 MOL      0.388427
    132 N12         7.0630   -3.5340   -0.3970 n         1 MOL     -0.286870
    133 C43         8.3250   -3.0090    0.0890 c3        1 MOL      0.100963
    134 C44         8.7160   -1.6190   -0.5030 c         1 MOL      0.465737
    135 O18         9.4490   -0.9400    0.2100 o         1 MOL     -0.499609
    136 C45         9.4080   -4.0290   -0.3410 c3        1 MOL     -0.207100
    137 H62         7.0910   -4.4950   -0.6940 hn        1 MOL      0.267447
    138 H63         8.3990   -2.8920    1.1720 h1        1 MOL      0.078855
    139 H64         9.6080   -4.0010   -1.4080 hc        1 MOL      0.062915
    140 H65        10.3040   -3.7190    0.1940 hc        1 MOL      0.062915
    141 H66         9.2170   -5.0670   -0.0530 hc        1 MOL      0.062915
    142 N13         8.1430   -1.2710   -1.6960 n         1 MOL     -0.401474
    143 C46         8.1400    0.0640   -2.2620 c3        1 MOL      0.277645
    144 C47         7.2020    1.0970   -1.5360 c         1 MOL      0.205914
    145 O19         7.5470    2.2850   -1.3350 o         1 MOL     -0.477705
    146 C48         7.8840   -0.0090   -3.8350 c3        1 MOL     -0.395411
    147 H67         7.6160   -2.0150   -2.1290 hn        1 MOL      0.218153
    148 H68         9.1450    0.4610   -2.1560 h1        1 MOL      0.051555
    149 H69         8.7040   -0.6140   -4.2020 hc        1 MOL      0.110053
    150 H70         6.9060   -0.3900   -4.1280 hc        1 MOL      0.110053
    151 H71         7.9800    1.0290   -4.1510 hc        1 MOL      0.110053
    152 N14         5.9110    0.7380   -1.2840 n         1 MOL     -0.020139
    153 C49         4.9060    1.5210   -0.4980 c3        1 MOL     -0.005140
    154 C50         5.3880    1.7980    0.9370 c         1 MOL      0.261169
    155 O20         5.3580    2.9020    1.4340 o         1 MOL     -0.545870
    156 C51         3.6300    0.7860   -0.4480 c3        1 MOL     -0.009606
    157 C52         3.0290    0.8530   -1.8040 c3        1 MOL     -0.243850
    158 C53         1.7230    0.0420   -1.8430 c         1 MOL      0.839079
    159 O21         1.6990   -1.1330   -2.2330 o         1 MOL     -0.753605
    160 O22         0.7150    0.5620   -1.3170 o         1 MOL     -0.753605
    161 H72         5.6060   -0.1760   -1.5650 hn        1 MOL      0.025926
    162 H73         4.7270    2.4510   -1.0390 h1        1 MOL      0.077601
    163 H74         2.9530    1.4070    0.1330 hc        1 MOL      0.123499
    164 H75         3.7830   -0.2810   -0.2460 hc        1 MOL      0.123499
    165 H76         3.6550    0.4770   -2.6070 hc        1 MOL      0.027828
    166 H77         2.7780    1.8690   -2.0860 hc        1 MOL      0.027828
    167 N15         6.0100    0.8150    1.4980 n         1 MOL      0.235380
    168 C54         6.7060    0.8130    2.7790 c3        1 MOL     -0.245781
    169 H78         6.5030    1.7470    3.3040 h1        1 MOL      0.088082
    170 H79         6.3570   -0.0250    3.3820 h1        1 MOL      0.088082
    171 H80         7.7790    0.7170    2.6110 h1        1 MOL      0.088082
    172 H81         6.0350   -0.0880    1.0540 hn        1 MOL     -0.039153
    173 Ca1        -1.6960   -0.3750   -1.6010 Ca        1 MOL      1.792637
    174 O23        -1.8950   -0.7220   -4.2610 oh        1 MOL     -0.790528
    175 H82        -1.4250   -1.3560   -4.8100 ho        1 MOL      0.381933
    176 H83        -2.7430   -0.6340   -4.6900 ho        1 MOL      0.381933
    177 O24        -0.4830   -2.8080   -2.3540 oh        1 MOL     -0.790528
    178 H84        -0.2230   -3.7310   -2.3410 ho        1 MOL      0.381933
    179 H85         0.3350   -2.3260   -2.2430 ho        1 MOL      0.381933
@<TRIPOS>BOND
     1    1    2 1   
     2    1    4 1   
     3    1    5 1   
     4    1    6 1   
     5    2    3 2   
     6    2    7 1   
     7    7    8 1   
     8    7   15 1   
     9    8    9 1   
    10    8   11 1   
    11    8   16 1   
    12    9   10 2   
    13    9   19 1   
    14   11   12 1   
    15   11   17 1   
    16   11   18 1   
    17   12   13 1   
    18   12   14 1   
    19   19   20 1   
    20   19   28 1   
    21   20   21 1   
    22   20   23 1   
    23   20   29 1   
    24   21   22 2   
    25   21   41 1   
    26   23   24 1   
    27   23   30 1   
    28   23   31 1   
    29   24   25 1   
    30   24   32 1   
    31   24   33 1   
    32   25   26 1   
    33   25   34 1   
    34   25   35 1   
    35   26   27 1   
    36   26   36 1   
    37   26   37 1   
    38   27   38 1   
    39   27   39 1   
    40   27   40 1   
    41   41   42 1   
    42   41   49 1   
    43   42   43 1   
    44   42   45 1   
    45   42   50 1   
    46   43   44 2   
    47   43   53 1   
    48   45   46 1   
    49   45   51 1   
    50   45   52 1   
    51   46   47 1   
    52   46   48 1   
    53   53   54 1   
    54   53   57 1   
    55   54   55 1   
    56   54   58 1   
    57   54   59 1   
    58   55   56 2   
    59   55   60 1   
    60   60   61 1   
    61   60   68 1   
    62   61   62 1   
    63   61   64 1   
    64   61   69 1   
    65   62   63 2   
    66   62   74 1   
    67   64   65 1   
    68   64   70 1   
    69   64   71 1   
    70   65   66 1   
    71   65   67 2   
    72   66   72 1   
    73   66   73 1   
    74   74   75 1   
    75   74   78 1   
    76   75   76 1   
    77   75   79 1   
    78   75   80 1   
    79   76   77 2   
    80   76   81 1   
    81   81   82 1   
    82   81   93 1   
    83   82   83 1   
    84   82   85 1   
    85   82   94 1   
    86   83   84 2   
    87   83  102 1   
    88   85   86 1   
    89   85   95 1   
    90   85   96 1   
    91   86   87 ar  
    92   86   88 ar  
    93   87   89 ar  
    94   87   97 1   
    95   88   90 ar  
    96   88   98 1   
    97   89   91 ar  
    98   89   99 1   
    99   90   91 ar  
   100   90  100 1   
   101   91   92 1   
   102   92  101 1   
   103  102  103 1   
   104  102  110 1   
   105  103  104 1   
   106  103  106 1   
   107  103  111 1   
   108  104  105 2   
   109  104  121 1   
   110  106  107 1   
   111  106  108 1   
   112  106  112 1   
   113  107  109 1   
   114  107  113 1   
   115  107  114 1   
   116  108  115 1   
   117  108  116 1   
   118  108  117 1   
   119  109  118 1   
   120  109  119 1   
   121  109  120 1   
   122  121  122 1   
   123  121  127 1   
   124  122  123 1   
   125  122  125 1   
   126  122  128 1   
   127  123  124 2   
   128  123  132 1   
   129  125  126 1   
   130  125  129 1   
   131  125  130 1   
   132  126  131 1   
   133  132  133 1   
   134  132  137 1   
   135  133  134 1   
   136  133  136 1   
   137  133  138 1   
   138  134  135 2   
   139  134  142 1   
   140  136  139 1   
   141  136  140 1   
   142  136  141 1   
   143  142  143 1   
   144  142  147 1   
   145  143  144 1   
   146  143  146 1   
   147  143  148 1   
   148  144  145 2   
   149  144  152 1   
   150  146  149 1   
   151  146  150 1   
   152  146  151 1   
   153  152  153 1   
   154  152  161 1   
   155  153  154 1   
   156  153  156 1   
   157  153  162 1   
   158  154  155 2   
   159  154  167 1   
   160  156  157 1   
   161  156  163 1   
   162  156  164 1   
   163  157  158 1   
   164  157  165 1   
   165  157  166 1   
   166  158  159 1   
   167  158  160 1   
   168  167  168 1   
   169  167  172 1   
   170  168  169 1   
   171  168  170 1   
   172  168  171 1   
   173  174  175 1   
   174  174  176 1   
   175  177  178 1   
   176  177  179 1   
@<TRIPOS>SUBSTRUCTURE
     1 MOL         1 TEMP              0 ****  ****    0 ROOT
