@<TRIPOS>MOLECULE
MOL
  179   176     1     0     0
SMALL
resp


@<TRIPOS>ATOM
      1 C1          1.8500    3.1540    6.7750 c3        1 MOL     -0.441815
      2 C2          1.7820    2.5530    5.3700 c         1 MOL      0.720289
      3 O1          2.7250    1.9220    4.8850 o         1 MOL     -0.581363
      4 H1          2.4470    4.0650    6.7520 hc        1 MOL      0.118145
      5 H2          0.8440    3.3880    7.1200 hc        1 MOL      0.118145
      6 H3          2.3110    2.4370    7.4550 hc        1 MOL      0.118145
      7 N1          0.7100    2.7740    4.5890 n         1 MOL     -0.583215
      8 C3          0.5260    2.5360    3.0710 c3        1 MOL      0.396935
      9 C4          0.4370    3.8030    2.2710 c         1 MOL      0.332583
     10 O2         -0.0330    4.8660    2.8030 o         1 MOL     -0.521967
     11 C5         -0.6380    1.5940    2.9760 c3        1 MOL     -0.133760
     12 C6         -1.0680    1.1790    1.6010 c         1 MOL      0.943801
     13 O3         -0.2320    1.3000    0.6370 o         1 MOL     -0.778298
     14 O4         -2.2180    0.7270    1.4060 o         1 MOL     -0.778298
     15 H4         -0.0150    3.2880    5.0580 hn        1 MOL      0.270394
     16 H5          1.4560    2.1440    2.6520 h1        1 MOL     -0.022739
     17 H6         -1.4730    2.0070    3.5450 hc        1 MOL      0.011839
     18 H7         -0.3440    0.6670    3.4480 hc        1 MOL      0.011839
     19 N2          0.9210    3.8490    0.9950 n         1 MOL     -0.256494
     20 C7          1.1830    4.9980    0.1320 c3        1 MOL     -0.180906
     21 C8         -0.1880    5.6310   -0.3490 c         1 MOL      0.524003
     22 O5         -0.2350    6.8410   -0.5520 o         1 MOL     -0.547085
     23 C9          2.2780    4.6460   -0.9250 c3        1 MOL     -0.024695
     24 C10         2.7970    5.9160   -1.6330 c3        1 MOL     -0.135987
     25 C11         3.7640    5.7610   -2.7850 c3        1 MOL      0.080715
     26 C12         4.0440    7.0890   -3.4600 c3        1 MOL      0.126989
     27 N3          4.9620    6.8150   -4.5930 n4        1 MOL     -0.501755
     28 H8          1.2200    2.9740    0.5890 hn        1 MOL      0.251383
     29 H9          1.6690    5.7020    0.8060 h1        1 MOL      0.153734
     30 H10         1.7930    4.0350   -1.6860 hc        1 MOL      0.072098
     31 H11         3.0450    4.0130   -0.4770 hc        1 MOL      0.072098
     32 H12         3.2390    6.4940   -0.8180 hc        1 MOL      0.052265
     33 H13         1.9300    6.4970   -1.9620 hc        1 MOL      0.052265
     34 H14         3.3620    5.0130   -3.4620 hc        1 MOL      0.016762
     35 H15         4.7480    5.4510   -2.4280 hc        1 MOL      0.016762
     36 H16         4.4260    7.8090   -2.7440 hx        1 MOL      0.064130
     37 H17         3.0530    7.4200   -3.7820 hx        1 MOL      0.064130
     38 H18         5.9350    6.6990   -4.3480 hn        1 MOL      0.358074
     39 H19         4.5480    6.1980   -5.2740 hn        1 MOL      0.358074
     40 H20         5.0090    7.5430   -5.2870 hn        1 MOL      0.358074
     41 N4         -1.2650    4.7820   -0.3980 n         1 MOL     -0.265607
     42 C13        -2.7020    5.0500   -0.8320 c3        1 MOL      0.044042
     43 C14        -3.7480    4.6390    0.1650 c         1 MOL      0.424086
     44 O6         -4.8350    5.2260    0.3010 o         1 MOL     -0.559924
     45 C15        -3.0180    4.3860   -2.1890 c3        1 MOL     -0.273150
     46 C16        -2.4780    2.9710   -2.3970 c         1 MOL      0.639593
     47 O7         -2.1140    2.5390   -3.4950 o         1 MOL     -0.666925
     48 O8         -2.5140    2.1830   -1.3900 o         1 MOL     -0.666925
     49 H21        -1.0430    3.8130   -0.2450 hn        1 MOL      0.193089
     50 H22        -2.8380    6.1230   -0.8870 h1        1 MOL      0.102770
     51 H23        -2.7960    5.1130   -2.9710 hc        1 MOL      0.096817
     52 H24        -4.0830    4.3510   -2.3980 hc        1 MOL      0.096817
     53 N5         -3.5600    3.5640    0.9020 n         1 MOL      0.003421
     54 C17        -4.4760    3.1560    1.9550 c3        1 MOL     -0.266701
     55 C18        -5.5520    2.2550    1.3520 c         1 MOL      0.705928
     56 O9         -6.5960    2.0990    1.9230 o         1 MOL     -0.645962
     57 H25        -2.8130    2.8870    0.8080 hn        1 MOL     -0.064557
     58 H26        -5.0260    4.0170    2.3270 h1        1 MOL      0.124864
     59 H27        -3.9780    2.6540    2.7930 h1        1 MOL      0.124864
     60 N6         -5.3580    1.6920    0.1760 n         1 MOL     -0.291475
     61 C19        -6.4430    1.0740   -0.6120 c3        1 MOL      0.030379
     62 C20        -6.9980   -0.2880   -0.0910 c         1 MOL      0.386277
     63 O10        -7.8710   -0.7810   -0.7930 o         1 MOL     -0.524116
     64 C21        -5.9580    1.0220   -2.0210 c3        1 MOL     -0.344216
     65 C22        -4.8280    0.0200   -2.1820 c         1 MOL      0.773546
     66 N7         -4.6060   -0.4050   -3.4280 n         1 MOL     -0.790446
     67 O11        -4.1770   -0.4580   -1.2990 o         1 MOL     -0.584293
     68 H28        -4.4070    1.8030   -0.1570 hn        1 MOL      0.089556
     69 H29        -7.2670    1.7900   -0.6630 h1        1 MOL      0.119003
     70 H30        -5.5720    2.0170   -2.2460 hc        1 MOL      0.124445
     71 H31        -6.7400    0.7590   -2.7470 hc        1 MOL      0.124445
     72 H32        -5.1910   -0.0790   -4.1930 hn        1 MOL      0.343023
     73 H33        -3.9700   -1.1510   -3.6470 hn        1 MOL      0.343023
     74 N8         -6.4850   -0.7870    1.0450 n         1 MOL     -0.067715
     75 C23        -7.0410   -1.9090    1.8730 c3        1 MOL     -0.318839
     76 C24        -6.0070   -2.9620    2.0220 c         1 MOL      0.639430
     77 O12        -6.0780   -3.8720    2.8190 o         1 MOL     -0.575345
     78 H34        -5.7860   -0.3270    1.6140 hn        1 MOL      0.213056
     79 H35        -7.9530   -2.2320    1.3620 h1        1 MOL      0.147610
     80 H36        -7.1900   -1.4410    2.8390 h1        1 MOL      0.147610
     81 N9         -4.8250   -2.9350    1.3210 n         1 MOL     -0.369406
     82 C25        -3.6840   -3.8090    1.4400 c3        1 MOL      0.317462
     83 C26        -2.3240   -3.0470    1.2410 c         1 MOL      0.278764
     84 O13        -2.2490   -1.9830    0.7070 o         1 MOL     -0.493434
     85 C27        -3.9390   -5.0280    0.5260 c3        1 MOL     -0.337295
     86 C28        -4.3750   -4.6860   -0.8970 ca        1 MOL      0.177658
     87 C29        -3.4230   -4.4620   -1.9250 ca        1 MOL     -0.195488
     88 C30        -5.7510   -4.6840   -1.1890 ca        1 MOL     -0.195488
     89 C31        -3.7850   -4.0690   -3.2310 ca        1 MOL     -0.282108
     90 C32        -6.0850   -4.1830   -2.4700 ca        1 MOL     -0.282108
     91 C33        -5.1240   -3.8950   -3.4400 ca        1 MOL      0.376485
     92 O14        -5.5860   -3.5480   -4.6760 oh        1 MOL     -0.527823
     93 H37        -4.7080   -2.2290    0.6090 hn        1 MOL      0.189701
     94 H38        -3.7500   -4.1030    2.4900 h1        1 MOL      0.021885
     95 H39        -4.7530   -5.5100    1.0560 hc        1 MOL      0.094468
     96 H40        -3.0640   -5.6880    0.5280 hc        1 MOL      0.094468
     97 H41        -2.4070   -4.6600   -1.6020 ha        1 MOL      0.149920
     98 H42        -6.4850   -4.8770   -0.4180 ha        1 MOL      0.149920
     99 H43        -3.0410   -3.7970   -3.9610 ha        1 MOL      0.158376
    100 H44        -7.1450   -4.0640   -2.6490 ha        1 MOL      0.158376
    101 H45        -6.5350   -3.6970   -4.6670 ho        1 MOL      0.368661
    102 N10        -1.1960   -3.6350    1.6640 n         1 MOL     -0.410850
    103 C34         0.1680   -3.0330    1.6310 c3        1 MOL      0.016541
    104 C35         1.1950   -3.9700    0.9030 c         1 MOL      0.497237
    105 O15         1.2650   -5.0930    1.3370 o         1 MOL     -0.531889
    106 C36         0.6800   -2.5310    3.0270 c3        1 MOL      0.076609
    107 C37        -0.6310   -2.1570    3.9320 c3        1 MOL      0.008905
    108 C38         1.7130   -1.4400    2.8120 c3        1 MOL     -0.200445
    109 C39        -0.2720   -1.5390    5.3400 c3        1 MOL     -0.153864
    110 H46        -1.3640   -4.5560    2.0360 hn        1 MOL      0.271994
    111 H47         0.0740   -2.1900    0.9540 h1        1 MOL      0.082977
    112 H48         1.1790   -3.3800    3.5100 hc        1 MOL      0.028921
    113 H49        -1.1910   -3.0580    4.1570 hc        1 MOL      0.033134
    114 H50        -1.3050   -1.4170    3.5020 hc        1 MOL      0.033134
    115 H51         2.1360   -1.0000    3.7260 hc        1 MOL      0.048327
    116 H52         2.6240   -1.8340    2.3500 hc        1 MOL      0.048327
    117 H53         1.3460   -0.6550    2.1570 hc        1 MOL      0.048327
    118 H54         0.4220   -2.2430    5.7990 hc        1 MOL      0.031921
    119 H55         0.1870   -0.5560    5.2230 hc        1 MOL      0.031921
    120 H56        -1.1500   -1.5100    5.9860 hc        1 MOL      0.031921
    121 N11         2.0560   -3.4800    0.0130 n         1 MOL     -0.251740
    122 C40         3.1970   -4.1940   -0.5380 c3        1 MOL      0.104537
    123 C41         4.6230   -3.7920    0.0240 c         1 MOL      0.417173
    124 O16         4.7390   -2.9330    0.9270 o         1 MOL     -0.362882
    125 C42         3.1830   -4.0440   -2.0550 c3        1 MOL     -0.092538
    126 O17         3.3350   -2.6630   -2.3860 oh        1 MOL     -0.546726
    127 H57         2.1010   -2.4710   -0.0870 hn        1 MOL      0.080486
    128 H58         3.0500   -5.2590   -0.4000 h1        1 MOL      0.051656
    129 H59         2.2420   -4.3170   -2.5300 h1        1 MOL      0.070894
    130 H60         4.0210   -4.5760   -2.5010 h1        1 MOL      0.070894
    131 H61         2.7190   -2.5320   -3.1150 ho        1 MOL      0.421795
    132 N12         5.6570   -4.4600   -0.4410 n         1 MOL     -0.398680
    133 C43         7.0180   -4.3030    0.0230 c3        1 MOL      0.118285
    134 C44         7.6540   -2.9980   -0.4960 c         1 MOL      0.476857
    135 O18         8.3110   -2.4270    0.3580 o         1 MOL     -0.515763
    136 C45         7.7320   -5.5520   -0.5080 c3        1 MOL     -0.243166
    137 H62         5.5300   -5.1090   -1.2030 hn        1 MOL      0.265585
    138 H63         6.9970   -4.2830    1.1100 h1        1 MOL      0.095574
    139 H64         8.7270   -5.7180   -0.1020 hc        1 MOL      0.073208
    140 H65         7.1480   -6.4380   -0.2780 hc        1 MOL      0.073208
    141 H66         7.7740   -5.4370   -1.5860 hc        1 MOL      0.073208
    142 N13         7.2890   -2.4740   -1.6610 n         1 MOL     -0.456319
    143 C46         7.7920   -1.1580   -2.0790 c3        1 MOL      0.187093
    144 C47         6.9950   -0.0060   -1.3890 c         1 MOL      0.271494
    145 O19         7.4460    1.1100   -1.2030 o         1 MOL     -0.488710
    146 C48         7.6650   -0.9890   -3.6190 c3        1 MOL     -0.335436
    147 H67         6.7570   -2.9840   -2.3570 hn        1 MOL      0.311977
    148 H68         8.8070   -1.0680   -1.6920 h1        1 MOL      0.093122
    149 H69         8.2230   -1.8200   -4.0350 hc        1 MOL      0.093654
    150 H70         6.6510   -1.0320   -4.0020 hc        1 MOL      0.093654
    151 H71         8.2390   -0.0780   -3.8060 hc        1 MOL      0.093654
    152 N14         5.7280   -0.2450   -0.9750 n         1 MOL     -0.123216
    153 C49         4.9410    0.6640   -0.0470 c3        1 MOL     -0.087100
    154 C50         5.5390    0.6610    1.3360 c         1 MOL      0.479149
    155 O20         5.6160    1.7240    1.9560 o         1 MOL     -0.550854
    156 C51         3.4980    0.1920    0.0250 c3        1 MOL      0.100570
    157 C52         2.8220    0.5560   -1.3370 c3        1 MOL      0.064467
    158 C53         1.5130   -0.1120   -1.4620 c         1 MOL      0.682880
    159 O21         1.0320   -0.9360   -0.6470 o         1 MOL     -0.752659
    160 O22         0.7760    0.3330   -2.3680 o         1 MOL     -0.752659
    161 H72         5.2580   -1.0890   -1.2760 hn        1 MOL      0.155089
    162 H73         5.0020    1.6870   -0.3920 h1        1 MOL      0.067461
    163 H74         3.0570    0.7820    0.8330 hc        1 MOL      0.001615
    164 H75         3.4860   -0.8660    0.2780 hc        1 MOL      0.001615
    165 H76         3.4930    0.1510   -2.0880 hc        1 MOL     -0.056541
    166 H77         2.8230    1.6380   -1.4290 hc        1 MOL     -0.056541
    167 N15         6.0150   -0.4740    1.8380 n         1 MOL     -0.092647
    168 C54         6.8060   -0.5830    3.1280 c3        1 MOL     -0.301077
    169 H78         7.3130    0.3620    3.3240 h1        1 MOL      0.119582
    170 H79         6.1290   -0.8090    3.9520 h1        1 MOL      0.119582
    171 H80         7.5460   -1.3790    3.0360 h1        1 MOL      0.119582
    172 H81         5.6730   -1.3450    1.4760 hn        1 MOL      0.130096
    173 Ca1        -1.5560   -0.1100   -1.0790 Ca        1 MOL      1.728797
    174 O23        -1.8790   -0.2320   -3.7560 oh        1 MOL     -0.791232
    175 H82        -1.4810   -0.5180   -4.5730 ho        1 MOL      0.396572
    176 H83        -2.2410    0.6280   -3.9470 ho        1 MOL      0.396572
    177 O24        -0.7030   -2.6450   -1.8270 oh        1 MOL     -0.791232
    178 H84        -0.4870   -3.1070   -2.6370 ho        1 MOL      0.396572
    179 H85         0.1060   -2.6660   -1.3190 ho        1 MOL      0.396572
@<TRIPOS>BOND
     1    1    2 1   
     2    1    4 1   
     3    1    5 1   
     4    1    6 1   
     5    2    3 2   
     6    2    7 1   
     7    7    8 1   
     8    7   15 1   
     9    8    9 1   
    10    8   11 1   
    11    8   16 1   
    12    9   10 2   
    13    9   19 1   
    14   11   12 1   
    15   11   17 1   
    16   11   18 1   
    17   12   13 1   
    18   12   14 1   
    19   19   20 1   
    20   19   28 1   
    21   20   21 1   
    22   20   23 1   
    23   20   29 1   
    24   21   22 2   
    25   21   41 1   
    26   23   24 1   
    27   23   30 1   
    28   23   31 1   
    29   24   25 1   
    30   24   32 1   
    31   24   33 1   
    32   25   26 1   
    33   25   34 1   
    34   25   35 1   
    35   26   27 1   
    36   26   36 1   
    37   26   37 1   
    38   27   38 1   
    39   27   39 1   
    40   27   40 1   
    41   41   42 1   
    42   41   49 1   
    43   42   43 1   
    44   42   45 1   
    45   42   50 1   
    46   43   44 2   
    47   43   53 1   
    48   45   46 1   
    49   45   51 1   
    50   45   52 1   
    51   46   47 1   
    52   46   48 1   
    53   53   54 1   
    54   53   57 1   
    55   54   55 1   
    56   54   58 1   
    57   54   59 1   
    58   55   56 2   
    59   55   60 1   
    60   60   61 1   
    61   60   68 1   
    62   61   62 1   
    63   61   64 1   
    64   61   69 1   
    65   62   63 2   
    66   62   74 1   
    67   64   65 1   
    68   64   70 1   
    69   64   71 1   
    70   65   66 1   
    71   65   67 2   
    72   66   72 1   
    73   66   73 1   
    74   74   75 1   
    75   74   78 1   
    76   75   76 1   
    77   75   79 1   
    78   75   80 1   
    79   76   77 2   
    80   76   81 1   
    81   81   82 1   
    82   81   93 1   
    83   82   83 1   
    84   82   85 1   
    85   82   94 1   
    86   83   84 2   
    87   83  102 1   
    88   85   86 1   
    89   85   95 1   
    90   85   96 1   
    91   86   87 ar  
    92   86   88 ar  
    93   87   89 ar  
    94   87   97 1   
    95   88   90 ar  
    96   88   98 1   
    97   89   91 ar  
    98   89   99 1   
    99   90   91 ar  
   100   90  100 1   
   101   91   92 1   
   102   92  101 1   
   103  102  103 1   
   104  102  110 1   
   105  103  104 1   
   106  103  106 1   
   107  103  111 1   
   108  104  105 2   
   109  104  121 1   
   110  106  107 1   
   111  106  108 1   
   112  106  112 1   
   113  107  109 1   
   114  107  113 1   
   115  107  114 1   
   116  108  115 1   
   117  108  116 1   
   118  108  117 1   
   119  109  118 1   
   120  109  119 1   
   121  109  120 1   
   122  121  122 1   
   123  121  127 1   
   124  122  123 1   
   125  122  125 1   
   126  122  128 1   
   127  123  124 2   
   128  123  132 1   
   129  125  126 1   
   130  125  129 1   
   131  125  130 1   
   132  126  131 1   
   133  132  133 1   
   134  132  137 1   
   135  133  134 1   
   136  133  136 1   
   137  133  138 1   
   138  134  135 2   
   139  134  142 1   
   140  136  139 1   
   141  136  140 1   
   142  136  141 1   
   143  142  143 1   
   144  142  147 1   
   145  143  144 1   
   146  143  146 1   
   147  143  148 1   
   148  144  145 2   
   149  144  152 1   
   150  146  149 1   
   151  146  150 1   
   152  146  151 1   
   153  152  153 1   
   154  152  161 1   
   155  153  154 1   
   156  153  156 1   
   157  153  162 1   
   158  154  155 2   
   159  154  167 1   
   160  156  157 1   
   161  156  163 1   
   162  156  164 1   
   163  157  158 1   
   164  157  165 1   
   165  157  166 1   
   166  158  159 1   
   167  158  160 1   
   168  167  168 1   
   169  167  172 1   
   170  168  169 1   
   171  168  170 1   
   172  168  171 1   
   173  174  175 1   
   174  174  176 1   
   175  177  178 1   
   176  177  179 1   
@<TRIPOS>SUBSTRUCTURE
     1 MOL         1 TEMP              0 ****  ****    0 ROOT
