@<TRIPOS>MOLECULE
MOL
  175   173     1     0     0
SMALL
resp


@<TRIPOS>ATOM
      1 C1          0.3900    3.5670    5.6330 c3        1 MOL     -0.375365
      2 C2         -0.1190    3.7410    4.2040 c         1 MOL      0.732672
      3 O1          0.7030    3.9960    3.3490 o         1 MOL     -0.532582
      4 H1          0.5070    4.5460    6.0980 hc        1 MOL      0.088416
      5 H2         -0.3270    2.9770    6.2050 hc        1 MOL      0.088416
      6 H3          1.3520    3.0550    5.6180 hc        1 MOL      0.088416
      7 N1         -1.4830    3.5810    3.9670 n         1 MOL     -0.662311
      8 C3         -2.0930    3.4370    2.6810 c3        1 MOL      0.062508
      9 C4         -2.1670    4.7160    1.9050 c         1 MOL      0.610521
     10 O2         -2.6010    5.7260    2.4330 o         1 MOL     -0.588270
     11 C5         -3.5600    3.0260    2.9210 c3        1 MOL     -0.263253
     12 C6         -4.2990    2.4580    1.6510 c         1 MOL      0.795073
     13 O3         -5.5010    2.0860    1.7640 o         1 MOL     -0.712263
     14 O4         -3.6710    2.2500    0.6160 o         1 MOL     -0.712263
     15 H4         -2.0750    3.3980    4.7660 hn        1 MOL      0.341004
     16 H5         -1.4740    2.7460    2.1060 h1        1 MOL      0.066630
     17 H6         -4.1120    3.8610    3.3490 hc        1 MOL      0.054221
     18 H7         -3.5710    2.2160    3.6450 hc        1 MOL      0.054221
     19 N2         -2.0880    4.6030    0.6190 n         1 MOL     -0.442796
     20 C7         -2.2930    5.6410   -0.3500 c3        1 MOL      0.068838
     21 C8         -3.0740    5.1690   -1.6580 c         1 MOL      0.614680
     22 O5         -3.0490    5.8060   -2.6900 o         1 MOL     -0.560789
     23 C9         -0.9000    6.2050   -0.5610 c3        1 MOL     -0.143380
     24 H8         -1.9810    3.6510    0.2820 hn        1 MOL      0.351444
     25 H9         -2.8850    6.4350    0.1010 h1        1 MOL      0.046654
     26 H10        -0.5430    6.7810    0.2850 hc        1 MOL      0.034829
     27 H11        -0.1910    5.4040   -0.7830 hc        1 MOL      0.034829
     28 H12        -0.8140    6.8000   -1.4740 hc        1 MOL      0.034829
     29 N3         -3.8990    4.0860   -1.5330 n         1 MOL     -0.564721
     30 C10        -4.6750    3.5170   -2.6220 c3        1 MOL      0.164951
     31 C11        -6.0000    2.7680   -2.2650 c         1 MOL      0.359899
     32 O6         -6.9030    2.8650   -3.0750 o         1 MOL     -0.564933
     33 C12        -3.8500    2.5070   -3.4470 c3        1 MOL     -0.089187
     34 C13        -3.1630    1.5130   -2.5140 c         1 MOL      0.703984
     35 O7         -3.8570    0.8640   -1.7390 o         1 MOL     -0.744706
     36 O8         -1.9050    1.2950   -2.5620 o         1 MOL     -0.744706
     37 H13        -3.9000    3.7130   -0.5900 hn        1 MOL      0.283175
     38 H14        -4.9200    4.3290   -3.3080 h1        1 MOL      0.050954
     39 H15        -3.0960    3.0280   -4.0160 hc        1 MOL      0.029387
     40 H16        -4.4040    2.0160   -4.2520 hc        1 MOL      0.029387
     41 N4         -6.1420    2.1200   -1.0950 n         1 MOL     -0.015850
     42 C14        -7.3370    1.4020   -0.7280 c3        1 MOL     -0.411072
     43 C15        -7.3060   -0.1000   -0.9690 c         1 MOL      0.605192
     44 O9         -8.2740   -0.8130   -0.7290 o         1 MOL     -0.604441
     45 H17        -5.3750    2.2350   -0.4530 hn        1 MOL      0.115067
     46 H18        -8.1660    1.9370   -1.1730 h1        1 MOL      0.161223
     47 H19        -7.4950    1.4440    0.3550 h1        1 MOL      0.161223
     48 N5         -6.2220   -0.6850   -1.5810 n         1 MOL     -0.230349
     49 C16        -6.2920   -2.0120   -2.1690 c3        1 MOL     -0.117624
     50 C17        -6.4940   -3.1530   -1.1410 c         1 MOL      0.549845
     51 O10        -7.0050   -4.2120   -1.5160 o         1 MOL     -0.589607
     52 C18        -5.1350   -2.2050   -3.1830 c3        1 MOL     -0.033128
     53 C19        -3.7730   -2.2960   -2.5180 c         1 MOL      0.579029
     54 N6         -2.6840   -2.2870   -3.2750 n         1 MOL     -0.741282
     55 O11        -3.6390   -2.1710   -1.3030 o         1 MOL     -0.519010
     56 H20        -5.3690   -0.1340   -1.6770 hn        1 MOL      0.172403
     57 H21        -7.1590   -2.0240   -2.8300 h1        1 MOL      0.090970
     58 H22        -5.2020   -1.3250   -3.8230 hc        1 MOL      0.041175
     59 H23        -5.4100   -2.9550   -3.9230 hc        1 MOL      0.041175
     60 H24        -2.6160   -2.4990   -4.2620 hn        1 MOL      0.352050
     61 H25        -1.8240   -2.2840   -2.7280 hn        1 MOL      0.352050
     62 N7         -6.0820   -2.9110    0.0960 n         1 MOL     -0.242307
     63 C20        -6.0370   -3.9520    1.1430 c3        1 MOL     -0.100330
     64 C21        -4.7280   -4.5570    1.4690 c         1 MOL      0.529524
     65 O12        -4.6710   -5.5720    2.1620 o         1 MOL     -0.619868
     66 H26        -5.7050   -1.9920    0.3130 hn        1 MOL      0.239359
     67 H27        -6.7900   -4.7240    0.9650 h1        1 MOL      0.070296
     68 H28        -6.3220   -3.4860    2.0900 h1        1 MOL      0.070296
     69 N8         -3.6720   -4.0560    0.8810 n         1 MOL     -0.072964
     70 C22        -2.2780   -4.5740    1.1660 c3        1 MOL     -0.317030
     71 C23        -1.3000   -3.4890    1.4220 c         1 MOL      0.586401
     72 O13        -1.3980   -2.4470    0.7940 o         1 MOL     -0.585478
     73 C24        -1.8020   -5.4820    0.0350 c3        1 MOL      0.541060
     74 C25        -2.6040   -6.8150    0.0000 c3        1 MOL     -0.392274
     75 O14        -1.9060   -4.9050   -1.2250 oh        1 MOL     -0.637268
     76 H29        -3.7240   -3.3520    0.1580 hn        1 MOL      0.109765
     77 H30        -2.3470   -5.1880    2.0610 h1        1 MOL      0.115119
     78 H31        -0.7400   -5.7200    0.1770 h1        1 MOL     -0.034416
     79 H32        -1.2330   -4.2330   -1.3230 ho        1 MOL      0.403298
     80 H33        -2.0650   -7.5540   -0.5880 hc        1 MOL      0.094542
     81 H34        -2.4910   -7.1730    1.0290 hc        1 MOL      0.094542
     82 H35        -3.6320   -6.7830   -0.3470 hc        1 MOL      0.094542
     83 N9         -0.2520   -3.7940    2.1440 n         1 MOL     -0.576785
     84 C26         0.9750   -2.9460    2.1400 c3        1 MOL      0.095836
     85 C27         1.5930   -3.1720    0.7600 c         1 MOL      0.361807
     86 O15         1.7440   -4.3840    0.4120 o         1 MOL     -0.533403
     87 C28         1.9450   -3.0680    3.3710 c3        1 MOL      0.235510
     88 C29         1.0720   -3.0060    4.6310 c3        1 MOL      0.097250
     89 C30         3.0040   -1.9160    3.3660 c3        1 MOL     -0.460915
     90 C31         1.6650   -3.5860    5.8870 c3        1 MOL     -0.028006
     91 H36        -0.1500   -4.6800    2.6270 hn        1 MOL      0.331063
     92 H37         0.5340   -1.9400    2.1310 h1        1 MOL      0.031567
     93 H38         2.5070   -4.0030    3.2860 hc        1 MOL     -0.019105
     94 H39         0.2740   -3.7150    4.4300 hc        1 MOL     -0.038340
     95 H40         0.6430   -2.0170    4.7210 hc        1 MOL     -0.038340
     96 H41         3.7580   -2.0810    2.5910 hc        1 MOL      0.097255
     97 H42         2.5570   -0.9440    3.1320 hc        1 MOL      0.097255
     98 H43         3.4650   -1.7670    4.3420 hc        1 MOL      0.097255
     99 H44         2.6320   -3.1810    6.1830 hc        1 MOL     -0.004452
    100 H45         1.0470   -3.4550    6.7810 hc        1 MOL     -0.004452
    101 H46         1.7860   -4.6590    5.7460 hc        1 MOL     -0.004452
    102 N10         2.0270   -2.0940    0.1350 n         1 MOL     -0.244620
    103 C32         2.6890   -2.0410   -1.1260 c3        1 MOL      0.351780
    104 C33         4.0630   -1.3920   -0.9370 c         1 MOL      0.200799
    105 O16         4.3180   -0.7140    0.0880 o         1 MOL     -0.236864
    106 C34         1.8900   -1.2900   -2.1580 c3        1 MOL     -0.456110
    107 C35         0.4980   -1.9310   -2.3210 c         1 MOL      0.852847
    108 O17        -0.3940   -1.3580   -1.7230 o         1 MOL     -0.703451
    109 O18         0.4210   -3.0040   -2.9600 o         1 MOL     -0.703451
    110 H47         1.8570   -1.2000    0.5790 hn        1 MOL      0.146539
    111 H48         2.8400   -3.0530   -1.5210 h1        1 MOL      0.018276
    112 H49         2.4230   -1.3540   -3.1050 hc        1 MOL      0.101297
    113 H50         1.9190   -0.2770   -1.7450 hc        1 MOL      0.101297
    114 N11         5.0710   -1.5740   -1.8470 n         1 MOL     -0.589181
    115 C36         6.5160   -1.1480   -1.5320 c3        1 MOL      0.357037
    116 C37         6.6580    0.4100   -1.2790 c         1 MOL      0.258297
    117 O19         7.3140    0.8650   -0.3840 o         1 MOL     -0.433829
    118 C38         7.5050   -1.8220   -2.5760 c3        1 MOL     -0.304354
    119 C39         8.9060   -1.7370   -2.1540 ca        1 MOL      0.077393
    120 C40         9.7750   -0.8450   -2.7780 ca        1 MOL     -0.120091
    121 C41         9.3300   -2.5200   -1.0860 ca        1 MOL     -0.120091
    122 C42        11.1820   -0.7580   -2.3630 ca        1 MOL     -0.172100
    123 C43        10.6440   -2.3540   -0.6120 ca        1 MOL     -0.172100
    124 C44        11.5360   -1.4620   -1.2430 ca        1 MOL     -0.035979
    125 H51         4.8560   -2.0710   -2.7020 hn        1 MOL      0.333522
    126 H52         6.7730   -1.6030   -0.5650 h1        1 MOL      0.061293
    127 H53         7.2790   -1.4140   -3.5680 hc        1 MOL      0.098787
    128 H54         7.3270   -2.8910   -2.6230 hc        1 MOL      0.098787
    129 H55         9.4510   -0.3270   -3.6660 ha        1 MOL      0.112181
    130 H56         8.6510   -3.1740   -0.5640 ha        1 MOL      0.112181
    131 H57        11.9860   -0.2590   -2.8980 ha        1 MOL      0.123268
    132 H58        11.0600   -2.8230    0.2590 ha        1 MOL      0.123268
    133 H59        12.5470   -1.4130   -0.8640 ha        1 MOL      0.083100
    134 N12         5.9180    1.2700   -2.1020 n         1 MOL     -0.079740
    135 C45         5.9370    2.6850   -1.7610 c3        1 MOL     -0.019016
    136 C46         5.4290    2.9660   -0.3690 c         1 MOL      0.287800
    137 O20         5.7930    4.0150    0.1720 o         1 MOL     -0.512559
    138 C47         5.0530    3.4520   -2.8190 c3        1 MOL     -0.027689
    139 C48         5.1920    2.4490   -4.0290 c3        1 MOL     -0.173539
    140 C49         5.0000    1.1800   -3.2610 c3        1 MOL     -0.022170
    141 H60         6.9620    3.0520   -1.8100 h1        1 MOL      0.092248
    142 H61         4.0270    3.6670   -2.5120 hc        1 MOL      0.054631
    143 H62         5.5560    4.3820   -3.1030 hc        1 MOL      0.054631
    144 H63         4.3710    2.5330   -4.7470 hc        1 MOL      0.072361
    145 H64         6.1820    2.4060   -4.4710 hc        1 MOL      0.072361
    146 H65         3.9880    1.0330   -2.8700 h1        1 MOL      0.049970
    147 H66         5.3670    0.3060   -3.7990 h1        1 MOL      0.049970
    148 N13         4.6040    2.0920    0.2300 n         1 MOL     -0.035681
    149 C50         4.0150    2.2510    1.6040 c3        1 MOL     -0.078744
    150 C51         4.8880    1.5760    2.7280 c         1 MOL      0.417847
    151 O21         5.1520    2.1290    3.7960 o         1 MOL     -0.555523
    152 C52         2.5700    1.6140    1.6350 c3        1 MOL      0.010903
    153 C53         1.6740    2.1840    0.5200 c3        1 MOL     -0.368527
    154 C54         0.3080    1.5750    0.5310 c         1 MOL      0.560146
    155 O22        -0.6090    2.1840   -0.1280 o         1 MOL     -0.642160
    156 O23         0.0280    0.4720    1.0270 o         1 MOL     -0.642160
    157 H67         4.2610    1.3160   -0.3090 hn        1 MOL      0.110760
    158 H68         3.8860    3.3020    1.8670 h1        1 MOL      0.107151
    159 H69         2.1390    1.7360    2.6290 hc        1 MOL      0.052034
    160 H70         2.7050    0.5310    1.5680 hc        1 MOL      0.052034
    161 H71         2.1230    1.9580   -0.4570 hc        1 MOL      0.155043
    162 H72         1.5000    3.2450    0.6420 hc        1 MOL      0.155043
    163 N14         5.5640    0.4500    2.4130 n         1 MOL     -0.040626
    164 C55         6.6140   -0.1830    3.2850 c3        1 MOL     -0.154419
    165 H73         6.7370    0.4070    4.1920 h1        1 MOL      0.064891
    166 H74         6.3060   -1.1950    3.5500 h1        1 MOL      0.064891
    167 H75         7.5610   -0.2210    2.7450 h1        1 MOL      0.064891
    168 H76         5.3790    0.0090    1.5170 hn        1 MOL      0.055133
    169 Ca1        -2.1260   -0.0710   -0.2260 Ca        1 MOL      1.732260
    170 O24        -2.1630    0.1990    2.4840 oh        1 MOL     -0.838257
    171 H77        -2.2090    0.3750    3.4150 ho        1 MOL      0.410382
    172 H78        -1.2190    0.1550    2.2950 ho        1 MOL      0.410382
    173 O25        -4.6760   -0.7690    1.5970 oh        1 MOL     -0.838257
    174 H79        -3.9600   -0.4980    2.1800 ho        1 MOL      0.410382
    175 H80        -5.1330    0.0480    1.3850 ho        1 MOL      0.410382
@<TRIPOS>BOND
     1    1    2 1   
     2    1    4 1   
     3    1    5 1   
     4    1    6 1   
     5    2    3 2   
     6    2    7 1   
     7    7    8 1   
     8    7   15 1   
     9    8    9 1   
    10    8   11 1   
    11    8   16 1   
    12    9   10 2   
    13    9   19 1   
    14   11   12 1   
    15   11   17 1   
    16   11   18 1   
    17   12   13 1   
    18   12   14 1   
    19   19   20 1   
    20   19   24 1   
    21   20   21 1   
    22   20   23 1   
    23   20   25 1   
    24   21   22 2   
    25   21   29 1   
    26   23   26 1   
    27   23   27 1   
    28   23   28 1   
    29   29   30 1   
    30   29   37 1   
    31   30   31 1   
    32   30   33 1   
    33   30   38 1   
    34   31   32 2   
    35   31   41 1   
    36   33   34 1   
    37   33   39 1   
    38   33   40 1   
    39   34   35 1   
    40   34   36 1   
    41   41   42 1   
    42   41   45 1   
    43   42   43 1   
    44   42   46 1   
    45   42   47 1   
    46   43   44 2   
    47   43   48 1   
    48   48   49 1   
    49   48   56 1   
    50   49   50 1   
    51   49   52 1   
    52   49   57 1   
    53   50   51 2   
    54   50   62 1   
    55   52   53 1   
    56   52   58 1   
    57   52   59 1   
    58   53   54 1   
    59   53   55 2   
    60   54   60 1   
    61   54   61 1   
    62   62   63 1   
    63   62   66 1   
    64   63   64 1   
    65   63   67 1   
    66   63   68 1   
    67   64   65 2   
    68   64   69 1   
    69   69   70 1   
    70   69   76 1   
    71   70   71 1   
    72   70   73 1   
    73   70   77 1   
    74   71   72 2   
    75   71   83 1   
    76   73   74 1   
    77   73   75 1   
    78   73   78 1   
    79   74   80 1   
    80   74   81 1   
    81   74   82 1   
    82   75   79 1   
    83   83   84 1   
    84   83   91 1   
    85   84   85 1   
    86   84   87 1   
    87   84   92 1   
    88   85   86 2   
    89   85  102 1   
    90   87   88 1   
    91   87   89 1   
    92   87   93 1   
    93   88   90 1   
    94   88   94 1   
    95   88   95 1   
    96   89   96 1   
    97   89   97 1   
    98   89   98 1   
    99   90   99 1   
   100   90  100 1   
   101   90  101 1   
   102  102  103 1   
   103  102  110 1   
   104  103  104 1   
   105  103  106 1   
   106  103  111 1   
   107  104  105 2   
   108  104  114 1   
   109  106  107 1   
   110  106  112 1   
   111  106  113 1   
   112  107  108 1   
   113  107  109 1   
   114  114  115 1   
   115  114  125 1   
   116  115  116 1   
   117  115  118 1   
   118  115  126 1   
   119  116  117 2   
   120  116  134 1   
   121  118  119 1   
   122  118  127 1   
   123  118  128 1   
   124  119  120 ar  
   125  119  121 ar  
   126  120  122 ar  
   127  120  129 1   
   128  121  123 ar  
   129  121  130 1   
   130  122  124 ar  
   131  122  131 1   
   132  123  124 ar  
   133  123  132 1   
   134  124  133 1   
   135  134  135 1   
   136  134  140 1   
   137  135  136 1   
   138  135  138 1   
   139  135  141 1   
   140  136  137 2   
   141  136  148 1   
   142  138  139 1   
   143  138  142 1   
   144  138  143 1   
   145  139  140 1   
   146  139  144 1   
   147  139  145 1   
   148  140  146 1   
   149  140  147 1   
   150  148  149 1   
   151  148  157 1   
   152  149  150 1   
   153  149  152 1   
   154  149  158 1   
   155  150  151 2   
   156  150  163 1   
   157  152  153 1   
   158  152  159 1   
   159  152  160 1   
   160  153  154 1   
   161  153  161 1   
   162  153  162 1   
   163  154  155 1   
   164  154  156 1   
   165  163  164 1   
   166  163  168 1   
   167  164  165 1   
   168  164  166 1   
   169  164  167 1   
   170  170  171 1   
   171  170  172 1   
   172  173  174 1   
   173  173  175 1   
@<TRIPOS>SUBSTRUCTURE
     1 MOL         1 TEMP              0 ****  ****    0 ROOT
