@<TRIPOS>MOLECULE
MOL
  186   183     1     0     0
SMALL
resp


@<TRIPOS>ATOM
      1 C1          0.9030   -2.5940    6.3340 c3        1 MOL     -0.345952
      2 C2          1.0700   -2.4130    4.7940 c         1 MOL      0.729990
      3 O1          0.1960   -2.7890    3.9980 o         1 MOL     -0.561727
      4 H1          1.8750   -2.5040    6.8180 hc        1 MOL      0.083544
      5 H2          0.2340   -1.8250    6.7200 hc        1 MOL      0.083544
      6 H3          0.4840   -3.5790    6.5420 hc        1 MOL      0.083544
      7 N1          2.2270   -1.8480    4.3500 n         1 MOL     -0.675864
      8 C3          2.5920   -1.6980    2.9370 c3        1 MOL      0.236023
      9 C4          2.9670   -3.0630    2.3730 c         1 MOL      0.546809
     10 O2          3.9670   -3.6350    2.7910 o         1 MOL     -0.614665
     11 C5          3.8080   -0.6740    2.8890 c3        1 MOL     -0.210052
     12 C6          4.3290   -0.5060    1.5430 c         1 MOL      0.804476
     13 O3          3.6350   -0.8550    0.5440 o         1 MOL     -0.666955
     14 O4          5.4530    0.0310    1.5200 o         1 MOL     -0.666955
     15 H4          2.9230   -1.5800    5.0320 hn        1 MOL      0.332244
     16 H5          1.7690   -1.3440    2.3120 h1        1 MOL     -0.026945
     17 H6          4.6180   -0.9260    3.5770 hc        1 MOL      0.032541
     18 H7          3.4090    0.3050    3.1370 hc        1 MOL      0.032541
     19 N2          2.1790   -3.5480    1.3970 n         1 MOL     -0.072050
     20 C7          2.2250   -4.9780    0.9070 c3        1 MOL     -0.113299
     21 C8          3.0970   -5.2100   -0.3620 c         1 MOL      0.405353
     22 O5          3.6990   -6.2270   -0.4970 o         1 MOL     -0.531818
     23 C9          0.8310   -5.4760    0.7010 c3        1 MOL      0.130007
     24 C10        -0.1320   -5.3290    1.9390 c3        1 MOL      0.026333
     25 C11         0.7670   -6.9750    0.2680 c3        1 MOL     -0.331562
     26 C12         0.4430   -6.0010    3.1910 c3        1 MOL     -0.065847
     27 H8          1.4390   -2.9600    1.0400 hn        1 MOL      0.164922
     28 H9          2.7120   -5.5830    1.6710 h1        1 MOL      0.084413
     29 H10         0.4060   -4.8100   -0.0500 hc        1 MOL      0.009041
     30 H11        -1.0790   -5.8430    1.7270 hc        1 MOL      0.007045
     31 H12        -0.4250   -4.3170    2.2100 hc        1 MOL      0.007045
     32 H13         1.1520   -7.0910   -0.7480 hc        1 MOL      0.078439
     33 H14         1.2960   -7.6990    0.8780 hc        1 MOL      0.078439
     34 H15        -0.2980   -7.2160    0.2110 hc        1 MOL      0.078439
     35 H16        -0.2540   -5.9520    4.0210 hc        1 MOL      0.002001
     36 H17         0.5290   -7.0810    3.0350 hc        1 MOL      0.002001
     37 H18         1.3830   -5.5590    3.5080 hc        1 MOL      0.002001
     38 N3          3.3150   -4.2060   -1.2140 n         1 MOL     -0.117266
     39 C13         4.3020   -4.1700   -2.2520 c3        1 MOL     -0.072584
     40 C14         5.6580   -3.5920   -1.9030 c         1 MOL      0.434244
     41 O6          6.6160   -3.6320   -2.6410 o         1 MOL     -0.549016
     42 C15         3.7220   -3.3960   -3.3890 c3        1 MOL     -0.022048
     43 C16         3.2320   -1.9770   -3.0760 c         1 MOL      0.721716
     44 O7          4.0010   -1.0210   -2.8530 o         1 MOL     -0.750666
     45 O8          1.9470   -1.8290   -2.9780 o         1 MOL     -0.750666
     46 H19         2.6740   -3.4450   -1.0070 hn        1 MOL      0.089678
     47 H20         4.5430   -5.1860   -2.5700 h1        1 MOL      0.092211
     48 H21         2.9180   -3.9740   -3.8350 hc        1 MOL      0.016356
     49 H22         4.3860   -3.3820   -4.2570 hc        1 MOL      0.016356
     50 N4          5.7730   -2.8510   -0.8430 n         1 MOL     -0.108027
     51 C17         6.9780   -2.1930   -0.3410 c3        1 MOL     -0.191921
     52 C18         7.4790   -0.9450   -1.0520 c         1 MOL      0.551409
     53 O9          8.6710   -0.8630   -1.3660 o         1 MOL     -0.604394
     54 H23         4.9220   -2.5800   -0.3610 hn        1 MOL      0.057831
     55 H24         7.8870   -2.7800   -0.4080 h1        1 MOL      0.093285
     56 H25         6.8140   -1.9150    0.6980 h1        1 MOL      0.093285
     57 N5          6.6320   -0.0130   -1.5690 n         1 MOL     -0.154718
     58 C19         7.0690    1.2880   -2.1450 c3        1 MOL     -0.092194
     59 C20         7.2010    2.3870   -1.0370 c         1 MOL      0.364472
     60 O10         7.5530    3.5420   -1.3430 o         1 MOL     -0.560120
     61 C21         6.1270    1.8280   -3.2170 c3        1 MOL     -0.207431
     62 C22         4.6760    2.1790   -2.7430 c         1 MOL      0.893358
     63 O11         3.9890    2.7510   -3.5730 o         1 MOL     -0.757199
     64 O12         4.3230    1.9090   -1.6160 o         1 MOL     -0.757199
     65 H26         5.6330   -0.1870   -1.4920 hn        1 MOL      0.189611
     66 H27         8.0370    1.0800   -2.6120 h1        1 MOL      0.113041
     67 H28         5.9370    1.1300   -4.0300 hc        1 MOL      0.051160
     68 H29         6.5280    2.7380   -3.6670 hc        1 MOL      0.051160
     69 N6          6.8330    2.0620    0.1700 n         1 MOL     -0.054883
     70 C23         6.9790    2.8660    1.4090 c3        1 MOL     -0.240820
     71 C24         5.7540    3.7270    1.7050 c         1 MOL      0.586091
     72 O13         5.8470    4.6320    2.5730 o         1 MOL     -0.611757
     73 H30         6.3520    1.1750    0.2400 hn        1 MOL      0.061736
     74 H31         7.9550    3.3590    1.3420 h1        1 MOL      0.112151
     75 H32         6.9260    2.1280    2.2110 h1        1 MOL      0.112151
     76 N7          4.5900    3.4270    1.1770 n         1 MOL     -0.329059
     77 C25         3.2470    4.0130    1.5370 c3        1 MOL     -0.020721
     78 C26         2.1090    2.9370    1.4880 c         1 MOL      0.617230
     79 O14         2.1410    1.9790    0.7030 o         1 MOL     -0.690671
     80 C27         2.8850    5.0970    0.5590 c3        1 MOL     -0.104618
     81 C28         3.8110    6.3780    0.6950 c3        1 MOL     -0.326522
     82 C29         3.2120    7.5930    0.1440 c         1 MOL      0.778004
     83 N8          3.2720    7.7410   -1.1130 n         1 MOL     -0.837486
     84 O15         2.6730    8.4640    0.7120 o         1 MOL     -0.626582
     85 H33         4.5180    2.7020    0.4780 hn        1 MOL      0.318500
     86 H34         3.1170    4.4610    2.5280 h1        1 MOL      0.067879
     87 H35         1.8360    5.3600    0.6970 hc        1 MOL      0.076218
     88 H36         2.9430    4.6950   -0.4590 hc        1 MOL      0.076218
     89 H37         4.8280    6.1960    0.3260 hc        1 MOL      0.115166
     90 H38         3.8680    6.5490    1.7670 hc        1 MOL      0.115166
     91 H39         3.6110    6.9950   -1.7180 hn        1 MOL      0.363488
     92 H40         2.7970    8.5440   -1.4820 hn        1 MOL      0.363488
     93 N9          0.9970    3.1310    2.2780 n         1 MOL     -0.559752
     94 C30        -0.1540    2.2360    2.2010 c3        1 MOL      0.207558
     95 C31        -1.2250    2.8550    1.2850 c         1 MOL      0.418641
     96 O16        -1.6460    3.9850    1.4580 o         1 MOL     -0.599548
     97 C32        -0.6420    1.9880    3.6690 c3        1 MOL      0.309395
     98 C33        -1.8120    1.0720    3.8240 c3        1 MOL     -0.330887
     99 C34         0.4140    1.4380    4.5640 c3        1 MOL     -0.330887
    100 H41         0.9490    4.0180    2.7560 hn        1 MOL      0.296310
    101 H42         0.0940    1.2600    1.7810 h1        1 MOL      0.118674
    102 H43        -0.9280    2.9790    4.0420 hc        1 MOL     -0.068085
    103 H44        -1.5370    0.0380    3.6210 hc        1 MOL      0.065895
    104 H45        -2.1030    1.1390    4.8690 hc        1 MOL      0.065895
    105 H46        -2.5800    1.4660    3.1670 hc        1 MOL      0.065895
    106 H47         0.1200    1.1540    5.5670 hc        1 MOL      0.065895
    107 H48         0.8540    0.6230    3.9800 hc        1 MOL      0.065895
    108 H49         1.1450    2.2230    4.7920 hc        1 MOL      0.065895
    109 N10        -1.7130    2.2420    0.1880 n         1 MOL     -0.108789
    110 C35        -2.8240    2.7360   -0.6460 c3        1 MOL      0.001656
    111 C36        -4.2300    2.2270   -0.2150 c         1 MOL      0.405359
    112 O17        -4.2720    1.2820    0.5860 o         1 MOL     -0.352534
    113 C37        -2.5500    2.5170   -2.1050 c3        1 MOL     -0.204855
    114 C38        -3.0830    1.2390   -2.6710 c         1 MOL      0.611744
    115 N11        -2.3710    0.1440   -2.5370 n         1 MOL     -0.436305
    116 O18        -4.1300    1.2640   -3.3040 o         1 MOL     -0.616635
    117 H50        -1.2160    1.3800    0.0090 hn        1 MOL      0.094594
    118 H51        -2.8930    3.8280   -0.6140 h1        1 MOL      0.089969
    119 H52        -1.4800    2.5580   -2.2850 hc        1 MOL      0.070654
    120 H53        -3.0300    3.3820   -2.5780 hc        1 MOL      0.070654
    121 H54        -1.5170    0.1400   -1.9910 hn        1 MOL      0.261890
    122 H55        -2.8600   -0.7020   -2.8260 hn        1 MOL      0.261890
    123 N12        -5.3390    2.6160   -0.7790 n         1 MOL     -0.545903
    124 C39        -6.6130    1.9870   -0.3510 c3        1 MOL      0.302579
    125 C40        -6.7050    0.4440   -0.4880 c         1 MOL      0.557690
    126 O19        -7.2970   -0.1800    0.4000 o         1 MOL     -0.562493
    127 C41        -7.8410    2.6850   -1.0460 c3        1 MOL     -0.242931
    128 C42        -9.1630    2.2580   -0.4620 ca        1 MOL      0.085612
    129 C43        -9.4930    2.6090    0.8320 ca        1 MOL     -0.188497
    130 C44       -10.0190    1.4950   -1.2410 ca        1 MOL     -0.188497
    131 C45       -10.6960    2.2720    1.4040 ca        1 MOL     -0.257205
    132 C46       -11.2610    1.1020   -0.6230 ca        1 MOL     -0.257205
    133 C47       -11.5810    1.5000    0.6900 ca        1 MOL      0.361969
    134 O20       -12.7660    1.1310    1.2040 oh        1 MOL     -0.502050
    135 H56        -5.3250    3.2610   -1.5560 hn        1 MOL      0.318273
    136 H57        -6.6610    2.2340    0.7140 h1        1 MOL      0.019989
    137 H58        -7.8110    2.4170   -2.0980 hc        1 MOL      0.076427
    138 H59        -7.7990    3.7630   -0.8620 hc        1 MOL      0.076427
    139 H60        -8.8100    3.2190    1.4060 ha        1 MOL      0.155279
    140 H61        -9.8070    1.1390   -2.2280 ha        1 MOL      0.155279
    141 H62       -10.9190    2.4860    2.4380 ha        1 MOL      0.133522
    142 H63       -12.0700    0.6230   -1.1520 ha        1 MOL      0.133522
    143 H64       -13.0900    0.4340    0.6270 ho        1 MOL      0.348264
    144 N13        -6.0750   -0.2530   -1.4310 n         1 MOL     -0.358939
    145 C48        -6.1030   -1.7220   -1.4650 c3        1 MOL     -0.027994
    146 C49        -5.3150   -2.3630   -0.2520 c         1 MOL      0.266925
    147 O21        -5.4820   -3.5390    0.0350 o         1 MOL     -0.518973
    148 C50        -5.4570   -2.3330   -2.8530 c3        1 MOL     -0.005387
    149 C51        -5.9950   -1.5690   -4.0740 c3        1 MOL     -0.447436
    150 C52        -5.3900   -2.1670   -5.2900 c         1 MOL      0.842773
    151 O22        -6.0370   -3.0950   -5.8370 o         1 MOL     -0.771316
    152 O23        -4.3700   -1.7520   -5.8190 o         1 MOL     -0.771316
    153 H65        -5.4760    0.2200   -2.0850 hn        1 MOL      0.199857
    154 H66        -7.1490   -2.0340   -1.4370 h1        1 MOL      0.113127
    155 H67        -5.6640   -3.4040   -2.9630 hc        1 MOL      0.057829
    156 H68        -4.3700   -2.2330   -2.7730 hc        1 MOL      0.057829
    157 H69        -5.7820   -0.5040   -4.0880 hc        1 MOL      0.099611
    158 H70        -7.0770   -1.6060   -4.0090 hc        1 MOL      0.099611
    159 N14        -4.4620   -1.5810    0.3790 n         1 MOL      0.084133
    160 C53        -3.5430   -2.0210    1.3740 c3        1 MOL      0.020501
    161 C54        -4.1390   -1.7790    2.7730 c         1 MOL      0.401164
    162 O24        -4.0580   -2.6490    3.6340 o         1 MOL     -0.552427
    163 C55        -2.0810   -1.4980    1.1990 c3        1 MOL      0.117077
    164 C56        -1.4850   -2.2420   -0.0490 c3        1 MOL      0.003431
    165 C57        -0.2320   -1.4380   -0.3610 c         1 MOL      0.706428
    166 O25         0.9150   -1.7820   -0.2600 o         1 MOL     -0.726832
    167 O26        -0.3220   -0.2490   -0.7030 o         1 MOL     -0.726832
    168 H71        -4.4160   -0.6300    0.0590 hn        1 MOL     -0.028801
    169 H72        -3.5090   -3.1060    1.2800 h1        1 MOL      0.037861
    170 H73        -1.4540   -1.7800    2.0570 hc        1 MOL     -0.025178
    171 H74        -2.0460   -0.4250    1.0020 hc        1 MOL     -0.025178
    172 H75        -2.1600   -2.3360   -0.8950 hc        1 MOL     -0.010863
    173 H76        -1.2000   -3.2720    0.1930 hc        1 MOL     -0.010863
    174 N15        -4.7510   -0.6310    3.0860 n         1 MOL     -0.013673
    175 C58        -5.6380   -0.3990    4.2070 c3        1 MOL     -0.374907
    176 H77        -5.0490   -0.2820    5.1160 h1        1 MOL      0.119817
    177 H78        -6.2170    0.5060    4.0310 h1        1 MOL      0.119817
    178 H79        -6.3130   -1.2470    4.3180 h1        1 MOL      0.119817
    179 H80        -4.8540    0.0440    2.3380 hn        1 MOL      0.074569
    180 Ca1         2.2150    0.1750   -1.3900 Ca        1 MOL      1.791454
    181 O27         0.4710    0.2620   -3.6980 oh        1 MOL     -0.852792
    182 H81         0.9230   -0.5720   -3.7760 ho        1 MOL      0.392900
    183 H82        -0.1820    0.2470   -4.3890 ho        1 MOL      0.392900
    184 O28         1.7110    2.7350   -2.1590 oh        1 MOL     -0.852792
    185 H83         1.2380    3.5640   -2.1950 ho        1 MOL      0.392900
    186 H84         2.4340    2.8360   -2.7760 ho        1 MOL      0.392900
@<TRIPOS>BOND
     1    1    2 1   
     2    1    4 1   
     3    1    5 1   
     4    1    6 1   
     5    2    3 2   
     6    2    7 1   
     7    7    8 1   
     8    7   15 1   
     9    8    9 1   
    10    8   11 1   
    11    8   16 1   
    12    9   10 2   
    13    9   19 1   
    14   11   12 1   
    15   11   17 1   
    16   11   18 1   
    17   12   13 1   
    18   12   14 1   
    19   19   20 1   
    20   19   27 1   
    21   20   21 1   
    22   20   23 1   
    23   20   28 1   
    24   21   22 2   
    25   21   38 1   
    26   23   24 1   
    27   23   25 1   
    28   23   29 1   
    29   24   26 1   
    30   24   30 1   
    31   24   31 1   
    32   25   32 1   
    33   25   33 1   
    34   25   34 1   
    35   26   35 1   
    36   26   36 1   
    37   26   37 1   
    38   38   39 1   
    39   38   46 1   
    40   39   40 1   
    41   39   42 1   
    42   39   47 1   
    43   40   41 2   
    44   40   50 1   
    45   42   43 1   
    46   42   48 1   
    47   42   49 1   
    48   43   44 1   
    49   43   45 1   
    50   50   51 1   
    51   50   54 1   
    52   51   52 1   
    53   51   55 1   
    54   51   56 1   
    55   52   53 2   
    56   52   57 1   
    57   57   58 1   
    58   57   65 1   
    59   58   59 1   
    60   58   61 1   
    61   58   66 1   
    62   59   60 2   
    63   59   69 1   
    64   61   62 1   
    65   61   67 1   
    66   61   68 1   
    67   62   63 1   
    68   62   64 1   
    69   69   70 1   
    70   69   73 1   
    71   70   71 1   
    72   70   74 1   
    73   70   75 1   
    74   71   72 2   
    75   71   76 1   
    76   76   77 1   
    77   76   85 1   
    78   77   78 1   
    79   77   80 1   
    80   77   86 1   
    81   78   79 2   
    82   78   93 1   
    83   80   81 1   
    84   80   87 1   
    85   80   88 1   
    86   81   82 1   
    87   81   89 1   
    88   81   90 1   
    89   82   83 1   
    90   82   84 2   
    91   83   91 1   
    92   83   92 1   
    93   93   94 1   
    94   93  100 1   
    95   94   95 1   
    96   94   97 1   
    97   94  101 1   
    98   95   96 2   
    99   95  109 1   
   100   97   98 1   
   101   97   99 1   
   102   97  102 1   
   103   98  103 1   
   104   98  104 1   
   105   98  105 1   
   106   99  106 1   
   107   99  107 1   
   108   99  108 1   
   109  109  110 1   
   110  109  117 1   
   111  110  111 1   
   112  110  113 1   
   113  110  118 1   
   114  111  112 2   
   115  111  123 1   
   116  113  114 1   
   117  113  119 1   
   118  113  120 1   
   119  114  115 1   
   120  114  116 2   
   121  115  121 1   
   122  115  122 1   
   123  123  124 1   
   124  123  135 1   
   125  124  125 1   
   126  124  127 1   
   127  124  136 1   
   128  125  126 2   
   129  125  144 1   
   130  127  128 1   
   131  127  137 1   
   132  127  138 1   
   133  128  129 ar  
   134  128  130 ar  
   135  129  131 ar  
   136  129  139 1   
   137  130  132 ar  
   138  130  140 1   
   139  131  133 ar  
   140  131  141 1   
   141  132  133 ar  
   142  132  142 1   
   143  133  134 1   
   144  134  143 1   
   145  144  145 1   
   146  144  153 1   
   147  145  146 1   
   148  145  148 1   
   149  145  154 1   
   150  146  147 2   
   151  146  159 1   
   152  148  149 1   
   153  148  155 1   
   154  148  156 1   
   155  149  150 1   
   156  149  157 1   
   157  149  158 1   
   158  150  151 1   
   159  150  152 1   
   160  159  160 1   
   161  159  168 1   
   162  160  161 1   
   163  160  163 1   
   164  160  169 1   
   165  161  162 2   
   166  161  174 1   
   167  163  164 1   
   168  163  170 1   
   169  163  171 1   
   170  164  165 1   
   171  164  172 1   
   172  164  173 1   
   173  165  166 1   
   174  165  167 1   
   175  174  175 1   
   176  174  179 1   
   177  175  176 1   
   178  175  177 1   
   179  175  178 1   
   180  181  182 1   
   181  181  183 1   
   182  184  185 1   
   183  184  186 1   
@<TRIPOS>SUBSTRUCTURE
     1 MOL         1 TEMP              0 ****  ****    0 ROOT
