@<TRIPOS>MOLECULE
MOL
  186   183     1     0     0
SMALL
resp


@<TRIPOS>ATOM
      1 C1          0.4080   -2.2190    6.1870 c3        1 MOL     -0.467319
      2 C2          0.8470   -2.3840    4.7750 c         1 MOL      0.750040
      3 O1          0.1020   -2.8750    3.9590 o         1 MOL     -0.548878
      4 H1          1.2530   -1.8900    6.7930 hc        1 MOL      0.111865
      5 H2         -0.3870   -1.4750    6.2370 hc        1 MOL      0.111865
      6 H3          0.0390   -3.1720    6.5670 hc        1 MOL      0.111865
      7 N1          2.0080   -1.7850    4.3890 n         1 MOL     -0.650910
      8 C3          2.5960   -1.7710    3.0300 c3        1 MOL      0.422052
      9 C4          2.9090   -3.1840    2.5230 c         1 MOL      0.275226
     10 O2          3.8420   -3.8940    3.0070 o         1 MOL     -0.564425
     11 C5          3.8480   -0.8160    3.0120 c3        1 MOL     -0.300073
     12 C6          4.4380   -0.5340    1.6690 c         1 MOL      0.762287
     13 O3          3.7550   -0.8690    0.6630 o         1 MOL     -0.630974
     14 O4          5.5760   -0.0820    1.6240 o         1 MOL     -0.630974
     15 H4          2.4770   -1.2970    5.1390 hn        1 MOL      0.298677
     16 H5          1.7880   -1.4540    2.3730 h1        1 MOL     -0.084996
     17 H6          4.5750   -1.3530    3.6190 hc        1 MOL      0.046800
     18 H7          3.6660    0.1630    3.4710 hc        1 MOL      0.046800
     19 N2          2.1320   -3.6330    1.5520 n         1 MOL      0.008400
     20 C7          2.3030   -4.9660    1.0670 c3        1 MOL     -0.025962
     21 C8          3.3710   -5.0590    0.0140 c         1 MOL      0.318470
     22 O5          4.0540   -6.0290   -0.0040 o         1 MOL     -0.529172
     23 C9          0.9440   -5.3500    0.4320 c3        1 MOL      0.318558
     24 C10        -0.2530   -5.3550    1.5380 c3        1 MOL     -0.151338
     25 C11         0.9560   -6.7830   -0.1600 c3        1 MOL     -0.419067
     26 C12        -0.0130   -6.0640    2.8750 c3        1 MOL     -0.073831
     27 H8          1.3780   -3.0370    1.2500 hn        1 MOL      0.144763
     28 H9          2.4390   -5.7810    1.7720 h1        1 MOL      0.056772
     29 H10         0.7010   -4.6230   -0.3450 hc        1 MOL     -0.064729
     30 H11        -1.0430   -5.9450    1.0590 hc        1 MOL      0.035949
     31 H12        -0.5560   -4.3470    1.7990 hc        1 MOL      0.035949
     32 H13        -0.0730   -6.9680   -0.4720 hc        1 MOL      0.096917
     33 H14         1.5930   -6.8070   -1.0460 hc        1 MOL      0.096917
     34 H15         1.1990   -7.5910    0.5330 hc        1 MOL      0.096917
     35 H16         0.5740   -5.4290    3.5330 hc        1 MOL      0.012280
     36 H17        -0.9460   -6.1770    3.4260 hc        1 MOL      0.012280
     37 H18         0.5050   -7.0200    2.7760 hc        1 MOL      0.012280
     38 N3          3.4840   -4.1070   -0.9510 n         1 MOL     -0.134509
     39 C13         4.4810   -4.0600   -2.0000 c3        1 MOL      0.006640
     40 C14         5.8180   -3.2810   -1.6520 c         1 MOL      0.454319
     41 O6          6.7380   -3.3370   -2.4280 o         1 MOL     -0.513148
     42 C15         3.8840   -3.6750   -3.3660 c3        1 MOL     -0.203903
     43 C16         3.0830   -2.3700   -3.3430 c         1 MOL      0.766389
     44 O7          2.0280   -2.2290   -4.0360 o         1 MOL     -0.720774
     45 O8          3.3190   -1.5690   -2.4500 o         1 MOL     -0.720774
     46 H19         2.9480   -3.2520   -0.9620 hn        1 MOL      0.163916
     47 H20         4.8340   -5.0850   -2.0530 h1        1 MOL      0.064899
     48 H21         3.2080   -4.4740   -3.6520 hc        1 MOL      0.043692
     49 H22         4.6590   -3.5650   -4.1240 hc        1 MOL      0.043692
     50 N4          6.0090   -2.6950   -0.4690 n         1 MOL     -0.279473
     51 C17         7.3440   -2.1680   -0.0030 c3        1 MOL     -0.046122
     52 C18         7.8650   -1.0100   -0.9120 c         1 MOL      0.433590
     53 O9          8.9700   -1.1140   -1.4410 o         1 MOL     -0.556620
     54 H23         5.2840   -2.6290    0.2320 hn        1 MOL      0.257345
     55 H24         8.0750   -2.9720   -0.0260 h1        1 MOL      0.055409
     56 H25         7.2480   -1.9040    1.0520 h1        1 MOL      0.055409
     57 N5          7.0200    0.0570   -1.0790 n         1 MOL     -0.074667
     58 C19         7.2810    1.2640   -1.8260 c3        1 MOL      0.055851
     59 C20         7.5080    2.5330   -0.8950 c         1 MOL      0.350652
     60 O10         8.1600    3.4780   -1.2410 o         1 MOL     -0.530683
     61 C21         6.1810    1.5010   -2.8440 c3        1 MOL     -0.307644
     62 C22         4.7420    1.5240   -2.2290 c         1 MOL      0.857312
     63 O11         4.5660    1.5520   -1.0400 o         1 MOL     -0.793101
     64 O12         3.7580    1.4970   -3.0070 o         1 MOL     -0.793101
     65 H26         6.1610   -0.0630   -0.5530 hn        1 MOL      0.014629
     66 H27         8.1660    1.0610   -2.4340 h1        1 MOL      0.069537
     67 H28         6.2490    0.7010   -3.5900 hc        1 MOL      0.086176
     68 H29         6.3550    2.4520   -3.3590 hc        1 MOL      0.086176
     69 N6          7.0490    2.3950    0.3570 n         1 MOL     -0.159469
     70 C23         7.0660    3.3790    1.4000 c3        1 MOL     -0.096691
     71 C24         5.6700    4.0860    1.5160 c         1 MOL      0.526264
     72 O13         5.6150    5.1090    2.1720 o         1 MOL     -0.605916
     73 H30         6.3900    1.6320    0.4830 hn        1 MOL      0.081921
     74 H31         7.8500    4.1030    1.1620 h1        1 MOL      0.082105
     75 H32         7.3560    2.8910    2.3230 h1        1 MOL      0.082105
     76 N7          4.6100    3.5950    0.9070 n         1 MOL     -0.309433
     77 C25         3.2460    4.1250    1.2500 c3        1 MOL      0.021789
     78 C26         2.1900    3.0640    1.4630 c         1 MOL      0.578792
     79 O14         2.4270    1.8670    1.3270 o         1 MOL     -0.580962
     80 C27         2.8080    5.0670    0.1390 c3        1 MOL      0.024944
     81 C28         3.7000    6.3000   -0.1600 c3        1 MOL     -0.316426
     82 C29         3.1540    7.2410   -1.2300 c         1 MOL      0.701635
     83 N8          3.0410    6.7760   -2.4870 n         1 MOL     -0.831883
     84 O15         2.8600    8.3990   -1.0080 o         1 MOL     -0.583773
     85 H33         4.6780    2.8240    0.2550 hn        1 MOL      0.328602
     86 H34         3.3390    4.6310    2.2080 h1        1 MOL      0.086334
     87 H35         1.8080    5.4550    0.3280 hc        1 MOL      0.018676
     88 H36         2.6830    4.5120   -0.7960 hc        1 MOL      0.018676
     89 H37         4.6630    5.9750   -0.5660 hc        1 MOL      0.098629
     90 H38         3.9810    6.7870    0.7800 hc        1 MOL      0.098629
     91 H39         3.4370    5.8760   -2.7030 hn        1 MOL      0.370638
     92 H40         2.7870    7.4330   -3.2060 hn        1 MOL      0.370638
     93 N9          0.9710    3.4750    1.8580 n         1 MOL     -0.617623
     94 C30        -0.1800    2.6220    1.9010 c3        1 MOL      0.575360
     95 C31        -1.2310    3.1920    0.9140 c         1 MOL      0.128121
     96 O16        -1.4750    4.3630    0.9620 o         1 MOL     -0.564463
     97 C32        -0.7500    2.6510    3.2870 c3        1 MOL      0.439632
     98 C33        -1.9320    1.5620    3.3280 c3        1 MOL     -0.513732
     99 C34         0.1580    2.3260    4.4260 c3        1 MOL     -0.513732
    100 H41         0.9570    4.4000    2.2470 hn        1 MOL      0.258017
    101 H42         0.1170    1.6000    1.6710 h1        1 MOL     -0.094503
    102 H43        -1.1250    3.6590    3.4370 hc        1 MOL     -0.082996
    103 H44        -2.4020    1.4230    4.2970 hc        1 MOL      0.106470
    104 H45        -2.6880    1.6350    2.5440 hc        1 MOL      0.106470
    105 H46        -1.4010    0.6130    3.1780 hc        1 MOL      0.106470
    106 H47         0.4820    1.2950    4.3440 hc        1 MOL      0.106470
    107 H48         1.0900    2.8730    4.2740 hc        1 MOL      0.106470
    108 H49        -0.3410    2.7030    5.3210 hc        1 MOL      0.106470
    109 N10        -1.8320    2.4630    0.0370 n         1 MOL      0.085240
    110 C35        -2.9650    2.7700   -0.8960 c3        1 MOL      0.126967
    111 C36        -4.2790    2.2140   -0.3200 c         1 MOL      0.306903
    112 O17        -4.2230    1.5870    0.7190 o         1 MOL     -0.279317
    113 C37        -2.5860    2.3620   -2.3370 c3        1 MOL     -0.122294
    114 C38        -3.0490    1.0170   -2.6310 c         1 MOL      0.722606
    115 N11        -2.1690    0.0470   -2.6210 n         1 MOL     -0.864614
    116 O18        -4.1920    0.7910   -2.9520 o         1 MOL     -0.622596
    117 H50        -1.5410    1.4930    0.1080 hn        1 MOL     -0.130524
    118 H51        -3.0840    3.8480   -0.9620 h1        1 MOL      0.054238
    119 H52        -1.5090    2.2150   -2.3800 hc        1 MOL      0.021735
    120 H53        -2.8290    3.0890   -3.1140 hc        1 MOL      0.021735
    121 H54        -1.1830    0.1950   -2.4470 hn        1 MOL      0.420735
    122 H55        -2.4720   -0.8270   -3.0240 hn        1 MOL      0.420735
    123 N12        -5.4210    2.5560   -0.8850 n         1 MOL     -0.509950
    124 C39        -6.7990    2.2050   -0.3340 c3        1 MOL      0.191765
    125 C40        -6.8790    0.6260   -0.3120 c         1 MOL      0.809699
    126 O19        -7.3690    0.0700    0.6220 o         1 MOL     -0.572948
    127 C41        -7.8600    2.7910   -1.2580 c3        1 MOL     -0.114205
    128 C42        -9.2400    2.3420   -0.6720 ca        1 MOL     -0.008670
    129 C43        -9.5300    2.6360    0.6590 ca        1 MOL     -0.211567
    130 C44       -10.0420    1.4470   -1.4110 ca        1 MOL     -0.211567
    131 C45       -10.7490    2.1890    1.1850 ca        1 MOL     -0.183250
    132 C46       -11.1990    0.8950   -0.8390 ca        1 MOL     -0.183250
    133 C47       -11.6010    1.2840    0.4750 ca        1 MOL      0.262415
    134 O20       -12.7110    0.8170    1.1180 oh        1 MOL     -0.479645
    135 H56        -5.4310    3.2290   -1.6280 hn        1 MOL      0.282259
    136 H57        -6.9370    2.5900    0.6720 h1        1 MOL      0.031776
    137 H58        -7.8140    2.4590   -2.3000 hc        1 MOL      0.052052
    138 H59        -7.8250    3.8740   -1.2200 hc        1 MOL      0.052052
    139 H60        -8.9250    3.3320    1.2250 ha        1 MOL      0.156921
    140 H61        -9.7810    1.1350   -2.4000 ha        1 MOL      0.156921
    141 H62       -11.0410    2.5220    2.1760 ha        1 MOL      0.125120
    142 H63       -11.8020    0.2240   -1.4320 ha        1 MOL      0.125120
    143 H64       -13.2740    0.4180    0.4540 ho        1 MOL      0.359046
    144 N13        -6.2870   -0.0180   -1.2770 n         1 MOL     -0.561325
    145 C48        -6.2130   -1.4730   -1.4070 c3        1 MOL     -0.021304
    146 C49        -5.3720   -2.1450   -0.2980 c         1 MOL      0.239621
    147 O21        -5.5800   -3.3190    0.0610 o         1 MOL     -0.511474
    148 C50        -5.5290   -1.8220   -2.7790 c3        1 MOL      0.208780
    149 C51        -5.9390   -3.2710   -3.2440 c3        1 MOL     -0.391473
    150 C52        -5.4650   -3.5420   -4.6540 c         1 MOL      0.690846
    151 O22        -4.3470   -4.0980   -4.8120 o         1 MOL     -0.735886
    152 O23        -6.1060   -2.9940   -5.6010 o         1 MOL     -0.735886
    153 H65        -5.7240    0.6410   -1.8040 hn        1 MOL      0.233247
    154 H66        -7.2260   -1.8620   -1.4940 h1        1 MOL      0.112198
    155 H67        -4.4640   -1.7600   -2.6000 hc        1 MOL      0.032329
    156 H68        -5.8880   -1.1710   -3.5800 hc        1 MOL      0.032329
    157 H69        -7.0230   -3.3500   -3.1170 hc        1 MOL      0.062342
    158 H70        -5.4030   -3.9380   -2.5720 hc        1 MOL      0.062342
    159 N14        -4.4960   -1.3810    0.2770 n         1 MOL      0.006173
    160 C53        -3.7530   -1.7920    1.4220 c3        1 MOL      0.004182
    161 C54        -4.3250   -1.3490    2.7420 c         1 MOL      0.389910
    162 O24        -4.1360   -2.0340    3.7540 o         1 MOL     -0.580406
    163 C55        -2.3320   -1.2300    1.2970 c3        1 MOL      0.171240
    164 C56        -1.5970   -1.9350    0.1900 c3        1 MOL      0.188952
    165 C57        -0.2140   -1.1930    0.0050 c         1 MOL      0.422485
    166 O25         0.8060   -1.8540   -0.1410 o         1 MOL     -0.554934
    167 O26        -0.2680    0.0640   -0.1340 o         1 MOL     -0.554934
    168 H71        -4.4220   -0.4470   -0.1000 hn        1 MOL      0.025159
    169 H72        -3.6190   -2.8800    1.4620 h1        1 MOL      0.058298
    170 H73        -1.7930   -1.4210    2.2230 hc        1 MOL      0.004684
    171 H74        -2.4160   -0.1720    1.0270 hc        1 MOL      0.004684
    172 H75        -2.1300   -1.9660   -0.7670 hc        1 MOL     -0.052729
    173 H76        -1.4130   -2.9550    0.5360 hc        1 MOL     -0.052729
    174 N15        -4.9220   -0.2120    2.8280 n         1 MOL      0.056612
    175 C58        -5.6610    0.2420    4.0030 c3        1 MOL     -0.238775
    176 H77        -4.9590    0.5350    4.7830 h1        1 MOL      0.078732
    177 H78        -6.2820    1.0970    3.7340 h1        1 MOL      0.078732
    178 H79        -6.2940   -0.5670    4.3690 h1        1 MOL      0.078732
    179 H80        -5.1040    0.3860    2.0300 hn        1 MOL     -0.022044
    180 Ca1         2.3140    0.2840   -0.9780 Ca        1 MOL      1.586222
    181 O27         1.4290    2.5800   -1.9210 oh        1 MOL     -0.741118
    182 H81         0.6030    3.0610   -1.9550 ho        1 MOL      0.371135
    183 H82         1.9560    2.9800   -2.6180 ho        1 MOL      0.371135
    184 O28         0.7440    0.0300   -3.0790 oh        1 MOL     -0.741118
    185 H83         1.1700   -0.7250   -3.4840 ho        1 MOL      0.371135
    186 H84         0.8960    0.7430   -3.6960 ho        1 MOL      0.371135
@<TRIPOS>BOND
     1    1    2 1   
     2    1    4 1   
     3    1    5 1   
     4    1    6 1   
     5    2    3 2   
     6    2    7 1   
     7    7    8 1   
     8    7   15 1   
     9    8    9 1   
    10    8   11 1   
    11    8   16 1   
    12    9   10 2   
    13    9   19 1   
    14   11   12 1   
    15   11   17 1   
    16   11   18 1   
    17   12   13 1   
    18   12   14 1   
    19   19   20 1   
    20   19   27 1   
    21   20   21 1   
    22   20   23 1   
    23   20   28 1   
    24   21   22 2   
    25   21   38 1   
    26   23   24 1   
    27   23   25 1   
    28   23   29 1   
    29   24   26 1   
    30   24   30 1   
    31   24   31 1   
    32   25   32 1   
    33   25   33 1   
    34   25   34 1   
    35   26   35 1   
    36   26   36 1   
    37   26   37 1   
    38   38   39 1   
    39   38   46 1   
    40   39   40 1   
    41   39   42 1   
    42   39   47 1   
    43   40   41 2   
    44   40   50 1   
    45   42   43 1   
    46   42   48 1   
    47   42   49 1   
    48   43   44 1   
    49   43   45 1   
    50   50   51 1   
    51   50   54 1   
    52   51   52 1   
    53   51   55 1   
    54   51   56 1   
    55   52   53 2   
    56   52   57 1   
    57   57   58 1   
    58   57   65 1   
    59   58   59 1   
    60   58   61 1   
    61   58   66 1   
    62   59   60 2   
    63   59   69 1   
    64   61   62 1   
    65   61   67 1   
    66   61   68 1   
    67   62   63 1   
    68   62   64 1   
    69   69   70 1   
    70   69   73 1   
    71   70   71 1   
    72   70   74 1   
    73   70   75 1   
    74   71   72 2   
    75   71   76 1   
    76   76   77 1   
    77   76   85 1   
    78   77   78 1   
    79   77   80 1   
    80   77   86 1   
    81   78   79 2   
    82   78   93 1   
    83   80   81 1   
    84   80   87 1   
    85   80   88 1   
    86   81   82 1   
    87   81   89 1   
    88   81   90 1   
    89   82   83 1   
    90   82   84 2   
    91   83   91 1   
    92   83   92 1   
    93   93   94 1   
    94   93  100 1   
    95   94   95 1   
    96   94   97 1   
    97   94  101 1   
    98   95   96 2   
    99   95  109 1   
   100   97   98 1   
   101   97   99 1   
   102   97  102 1   
   103   98  103 1   
   104   98  104 1   
   105   98  105 1   
   106   99  106 1   
   107   99  107 1   
   108   99  108 1   
   109  109  110 1   
   110  109  117 1   
   111  110  111 1   
   112  110  113 1   
   113  110  118 1   
   114  111  112 2   
   115  111  123 1   
   116  113  114 1   
   117  113  119 1   
   118  113  120 1   
   119  114  115 1   
   120  114  116 2   
   121  115  121 1   
   122  115  122 1   
   123  123  124 1   
   124  123  135 1   
   125  124  125 1   
   126  124  127 1   
   127  124  136 1   
   128  125  126 2   
   129  125  144 1   
   130  127  128 1   
   131  127  137 1   
   132  127  138 1   
   133  128  129 ar  
   134  128  130 ar  
   135  129  131 ar  
   136  129  139 1   
   137  130  132 ar  
   138  130  140 1   
   139  131  133 ar  
   140  131  141 1   
   141  132  133 ar  
   142  132  142 1   
   143  133  134 1   
   144  134  143 1   
   145  144  145 1   
   146  144  153 1   
   147  145  146 1   
   148  145  148 1   
   149  145  154 1   
   150  146  147 2   
   151  146  159 1   
   152  148  149 1   
   153  148  155 1   
   154  148  156 1   
   155  149  150 1   
   156  149  157 1   
   157  149  158 1   
   158  150  151 1   
   159  150  152 1   
   160  159  160 1   
   161  159  168 1   
   162  160  161 1   
   163  160  163 1   
   164  160  169 1   
   165  161  162 2   
   166  161  174 1   
   167  163  164 1   
   168  163  170 1   
   169  163  171 1   
   170  164  165 1   
   171  164  172 1   
   172  164  173 1   
   173  165  166 1   
   174  165  167 1   
   175  174  175 1   
   176  174  179 1   
   177  175  176 1   
   178  175  177 1   
   179  175  178 1   
   180  181  182 1   
   181  181  183 1   
   182  184  185 1   
   183  184  186 1   
@<TRIPOS>SUBSTRUCTURE
     1 MOL         1 TEMP              0 ****  ****    0 ROOT
