@<TRIPOS>MOLECULE
MOL
  179   176     1     0     0
SMALL
resp


@<TRIPOS>ATOM
      1 C1          2.2350    3.2260    4.4940 c3        1 MOL     -0.321294
      2 C2          1.4210    2.9540    3.1600 c         1 MOL      0.757691
      3 O1          2.0580    2.8600    2.1190 o         1 MOL     -0.617679
      4 H1          3.3030    3.1670    4.2860 hc        1 MOL      0.077263
      5 H2          1.9940    4.2200    4.8710 hc        1 MOL      0.077263
      6 H3          1.9690    2.4780    5.2410 hc        1 MOL      0.077263
      7 N1          0.0770    2.9780    3.1760 n         1 MOL     -0.794351
      8 C3         -0.8240    2.7440    1.9970 c3        1 MOL      0.319931
      9 C4         -1.5290    4.0550    1.4950 c         1 MOL      0.519253
     10 O2         -2.7400    4.2650    1.7380 o         1 MOL     -0.456391
     11 C5         -1.8470    1.6660    2.4240 c3        1 MOL     -0.130654
     12 C6         -2.9520    1.3960    1.4320 c         1 MOL      0.441038
     13 O3         -4.0960    1.1760    1.8800 o         1 MOL     -0.584743
     14 O4         -2.6740    1.4120    0.2180 o         1 MOL     -0.584743
     15 H4         -0.3430    3.0440    4.0920 hn        1 MOL      0.353779
     16 H5         -0.2140    2.3250    1.1980 h1        1 MOL      0.018870
     17 H6         -2.3390    1.9460    3.3510 hc        1 MOL      0.033670
     18 H7         -1.3120    0.7570    2.7010 hc        1 MOL      0.033670
     19 N2         -0.6740    4.9410    0.9580 n         1 MOL     -0.425810
     20 C7         -1.0960    6.2470    0.3900 c3        1 MOL     -0.061203
     21 C8         -1.9570    6.0790   -0.8370 c         1 MOL      0.426423
     22 O5         -2.7250    6.9740   -1.1860 o         1 MOL     -0.540921
     23 C9          0.1430    7.1380   -0.0070 c3        1 MOL     -0.062893
     24 C10         0.7490    7.9500    1.1410 c3        1 MOL      0.208024
     25 C11         2.1530    8.6150    0.8290 c3        1 MOL     -0.477291
     26 C12         3.3890    7.6110    0.8070 c3        1 MOL      0.024383
     27 N3          4.0100    7.2280    2.0590 n4        1 MOL     -0.408426
     28 H8          0.3040    4.6830    0.8270 hn        1 MOL      0.281289
     29 H9         -1.7140    6.7180    1.1480 h1        1 MOL      0.120823
     30 H10        -0.1570    7.8180   -0.7960 hc        1 MOL      0.069301
     31 H11         0.8950    6.5230   -0.4940 hc        1 MOL      0.069301
     32 H12         0.7680    7.3520    2.0500 hc        1 MOL     -0.018006
     33 H13        -0.0080    8.7220    1.2930 hc        1 MOL     -0.018006
     34 H14         2.3360    9.2780    1.6740 hc        1 MOL      0.170210
     35 H15         2.0830    9.1220   -0.1280 hc        1 MOL      0.170210
     36 H16         4.2180    8.0530    0.2700 hx        1 MOL      0.117354
     37 H17         3.1730    6.8340    0.0720 hx        1 MOL      0.117354
     38 H18         4.6650    6.5080    1.8330 hn        1 MOL      0.352808
     39 H19         4.4120    7.9880    2.5870 hn        1 MOL      0.352808
     40 H20         3.3090    6.7960    2.6410 hn        1 MOL      0.352808
     41 N4         -1.8840    4.9670   -1.5280 n         1 MOL     -0.314363
     42 C13        -2.9010    4.7470   -2.5770 c3        1 MOL      0.063457
     43 C14        -4.2790    4.2830   -2.0940 c         1 MOL      0.356453
     44 O6         -5.2440    4.1940   -2.8440 o         1 MOL     -0.550171
     45 C15        -2.3920    3.7320   -3.6160 c3        1 MOL     -0.310694
     46 C16        -1.9170    2.4310   -2.9200 c         1 MOL      0.810358
     47 O7         -0.9210    2.4150   -2.2220 o         1 MOL     -0.757938
     48 O8         -2.6020    1.3550   -2.9650 o         1 MOL     -0.757938
     49 H21        -1.2720    4.2050   -1.2690 hn        1 MOL      0.242060
     50 H22        -3.0780    5.6820   -3.1150 h1        1 MOL      0.110065
     51 H23        -1.6120    4.1980   -4.2150 hc        1 MOL      0.086831
     52 H24        -3.1980    3.4820   -4.3060 hc        1 MOL      0.086831
     53 N5         -4.3680    3.8810   -0.8790 n         1 MOL      0.159130
     54 C17        -5.5830    3.5450   -0.1540 c3        1 MOL     -0.465688
     55 C18        -6.2230    2.2190   -0.5160 c         1 MOL      0.606742
     56 O9         -7.4120    2.0680   -0.2190 o         1 MOL     -0.590797
     57 H25        -3.4970    3.7940   -0.3720 hn        1 MOL      0.007812
     58 H26        -6.3110    4.3000   -0.4630 h1        1 MOL      0.178954
     59 H27        -5.5440    3.5110    0.9330 h1        1 MOL      0.178954
     60 N6         -5.5490    1.2440   -1.1250 n         1 MOL     -0.091273
     61 C19        -6.1750   -0.0340   -1.5530 c3        1 MOL     -0.324475
     62 C20        -6.3930   -1.0430   -0.4470 c         1 MOL      0.352116
     63 O10        -7.0890   -2.0570   -0.6970 o         1 MOL     -0.470930
     64 C21        -5.4020   -0.5980   -2.6980 c3        1 MOL      0.026728
     65 C22        -4.2970   -1.4990   -2.5300 c         1 MOL      0.602789
     66 N7         -4.0270   -2.3590   -3.5030 n         1 MOL     -0.749264
     67 O11        -3.5420   -1.4610   -1.5800 o         1 MOL     -0.501916
     68 H28        -4.5690    1.3840   -1.3050 hn        1 MOL      0.068972
     69 H29        -7.1350    0.3070   -1.9360 h1        1 MOL      0.184951
     70 H30        -5.0970    0.1790   -3.4010 hc        1 MOL      0.054093
     71 H31        -6.1020   -1.1250   -3.3410 hc        1 MOL      0.054093
     72 H32        -4.6710   -2.4550   -4.2720 hn        1 MOL      0.342911
     73 H33        -3.2840   -3.0390   -3.3880 hn        1 MOL      0.342911
     74 N8         -5.9250   -0.8030    0.8010 n         1 MOL     -0.034945
     75 C23        -6.0960   -1.6550    1.9160 c3        1 MOL     -0.327773
     76 C24        -4.9560   -2.6030    2.2060 c         1 MOL      0.553542
     77 O12        -5.1180   -3.5870    2.9430 o         1 MOL     -0.545270
     78 H34        -5.4350    0.0690    0.9610 hn        1 MOL      0.205321
     79 H35        -6.9920   -2.2600    1.7650 h1        1 MOL      0.139931
     80 H36        -6.2550   -1.0130    2.7820 h1        1 MOL      0.139931
     81 N9         -3.8190   -2.4090    1.5210 n         1 MOL     -0.280206
     82 C25        -2.6170   -3.2590    1.6680 c3        1 MOL      0.235581
     83 C26        -1.3210   -2.4280    1.6590 c         1 MOL      0.347878
     84 O13        -1.2480   -1.4340    0.9840 o         1 MOL     -0.518386
     85 C27        -2.5100   -4.3330    0.5630 c3        1 MOL      0.082712
     86 C28        -3.6710   -5.2810    0.4950 ca        1 MOL     -0.103165
     87 C29        -4.9040   -4.8420   -0.1070 ca        1 MOL     -0.045941
     88 C30        -3.5160   -6.5720    0.8960 ca        1 MOL     -0.045941
     89 C31        -5.9730   -5.7140   -0.2800 ca        1 MOL     -0.396678
     90 C32        -4.5930   -7.4480    0.7930 ca        1 MOL     -0.396678
     91 C33        -5.8380   -6.9950    0.2470 ca        1 MOL      0.515217
     92 O14        -6.8330   -7.9150    0.1370 oh        1 MOL     -0.506404
     93 H37        -3.6950   -1.6000    0.9330 hn        1 MOL      0.197712
     94 H38        -2.7560   -3.7450    2.6360 h1        1 MOL     -0.022294
     95 H39        -1.5930   -4.9110    0.5980 hc        1 MOL     -0.016921
     96 H40        -2.5560   -3.7540   -0.3650 hc        1 MOL     -0.016921
     97 H41        -4.9850   -3.8040   -0.3710 ha        1 MOL      0.093803
     98 H42        -2.5930   -6.8120    1.3870 ha        1 MOL      0.093803
     99 H43        -6.8590   -5.3150   -0.7500 ha        1 MOL      0.170473
    100 H44        -4.5120   -8.3960    1.2830 ha        1 MOL      0.170473
    101 H45        -6.5450   -8.8220    0.3050 ho        1 MOL      0.335943
    102 N10        -0.2770   -3.0570    2.2710 n         1 MOL     -0.452744
    103 C34         1.1250   -2.6040    2.0390 c3        1 MOL      0.261413
    104 C35         1.8810   -3.6850    1.2910 c         1 MOL      0.433199
    105 O15         1.6570   -4.8670    1.3810 o         1 MOL     -0.537173
    106 C36         1.7970   -2.3790    3.4540 c3        1 MOL      0.071054
    107 C37         0.9970   -1.3580    4.4290 c3        1 MOL      0.108806
    108 C38         3.3120   -2.0460    3.2570 c3        1 MOL     -0.147429
    109 C39         1.4910   -1.3860    5.9140 c3        1 MOL     -0.322168
    110 H46        -0.3830   -3.9300    2.7640 hn        1 MOL      0.284267
    111 H47         1.1110   -1.7180    1.4040 h1        1 MOL     -0.053602
    112 H48         1.7330   -3.3820    3.8870 hc        1 MOL     -0.023884
    113 H49        -0.0680   -1.5720    4.5290 hc        1 MOL      0.018816
    114 H50         1.1730   -0.3490    4.0590 hc        1 MOL      0.018816
    115 H51         3.7800   -2.9060    2.7650 hc        1 MOL      0.015223
    116 H52         3.3770   -1.1400    2.6540 hc        1 MOL      0.015223
    117 H53         3.8760   -1.8680    4.1710 hc        1 MOL      0.015223
    118 H54         0.8400   -2.0670    6.4660 hc        1 MOL      0.078862
    119 H55         2.5600   -1.4590    6.0970 hc        1 MOL      0.078862
    120 H56         1.2930   -0.4160    6.3670 hc        1 MOL      0.078862
    121 N11         2.8760   -3.2450    0.4740 n         1 MOL     -0.036316
    122 C40         3.6950   -4.1930   -0.3160 c3        1 MOL     -0.091803
    123 C41         5.0980   -3.5830   -0.3890 c         1 MOL      0.515032
    124 O16         5.4060   -2.4770    0.1120 o         1 MOL     -0.444783
    125 C42         2.9510   -4.4360   -1.5980 c3        1 MOL      0.028197
    126 O17         2.5500   -3.2940   -2.3370 oh        1 MOL     -0.608032
    127 H57         3.0520   -2.2550    0.3670 hn        1 MOL      0.100687
    128 H58         3.7290   -5.2050    0.0790 h1        1 MOL      0.067898
    129 H59         2.1060   -5.0850   -1.3460 h1        1 MOL      0.076413
    130 H60         3.5970   -5.0340   -2.2460 h1        1 MOL      0.076413
    131 H61         2.2310   -2.6300   -1.7160 ho        1 MOL      0.360300
    132 N12         6.0910   -4.2790   -1.0150 n         1 MOL     -0.504205
    133 C43         7.5400   -4.0190   -0.7090 c3        1 MOL      0.119464
    134 C44         8.0150   -2.6150   -1.1980 c         1 MOL      0.382829
    135 O18         8.8500   -1.9300   -0.5790 o         1 MOL     -0.531181
    136 C45         8.4120   -5.1250   -1.3310 c3        1 MOL     -0.344244
    137 H62         5.9250   -5.1060   -1.5750 hn        1 MOL      0.311627
    138 H63         7.7520   -4.1130    0.3530 h1        1 MOL      0.098723
    139 H64         8.2290   -6.1010   -0.8820 hc        1 MOL      0.108187
    140 H65         8.0780   -5.1780   -2.3660 hc        1 MOL      0.108187
    141 H66         9.4900   -5.0330   -1.1660 hc        1 MOL      0.108187
    142 N13         7.4540   -2.1000   -2.2570 n         1 MOL     -0.215555
    143 C46         7.9290   -0.8080   -2.8380 c3        1 MOL     -0.012184
    144 C47         7.3430    0.3410   -2.0220 c         1 MOL      0.419303
    145 O19         8.0090    1.3810   -1.9170 o         1 MOL     -0.528768
    146 C48         7.5750   -0.6640   -4.3280 c3        1 MOL     -0.207165
    147 H67         6.7040   -2.6420   -2.6580 hn        1 MOL      0.215743
    148 H68         9.0150   -0.8020   -2.7480 h1        1 MOL      0.128358
    149 H69         7.9780   -1.5350   -4.8500 hc        1 MOL      0.067484
    150 H70         6.5090   -0.5890   -4.5390 hc        1 MOL      0.067484
    151 H71         7.9900    0.2490   -4.7600 hc        1 MOL      0.067484
    152 N14         6.1010    0.3180   -1.6890 n         1 MOL     -0.235898
    153 C49         5.4870    1.3430   -0.7420 c3        1 MOL      0.021521
    154 C50         5.8790    1.3230    0.7320 c         1 MOL      0.384077
    155 O20         6.0870    2.3880    1.3250 o         1 MOL     -0.553620
    156 C51         4.0350    1.3060   -0.9270 c3        1 MOL     -0.073767
    157 C52         3.2020    0.3100   -0.0590 c3        1 MOL     -0.040739
    158 C53         1.8190   -0.0100   -0.6020 c         1 MOL      0.698379
    159 O21         1.5880   -1.1000   -1.1710 o         1 MOL     -0.676734
    160 O22         0.9150    0.8070   -0.5220 o         1 MOL     -0.676734
    161 H72         5.5220   -0.4540   -1.9900 hn        1 MOL      0.234306
    162 H73         5.8100    2.3190   -1.0880 h1        1 MOL      0.096904
    163 H74         3.8260    1.0960   -1.9780 hc        1 MOL      0.022512
    164 H75         3.5630    2.2880   -0.8070 hc        1 MOL      0.022512
    165 H76         3.0970    0.7540    0.9320 hc        1 MOL      0.025236
    166 H77         3.8310   -0.5790   -0.0120 hc        1 MOL      0.025236
    167 N15         6.3810    0.1850    1.2270 n         1 MOL     -0.032366
    168 C54         7.1500    0.0630    2.5120 c3        1 MOL     -0.285092
    169 H78         8.2180    0.0850    2.2980 h1        1 MOL      0.121560
    170 H79         6.8940    0.8930    3.1700 h1        1 MOL      0.121560
    171 H80         6.8980   -0.8790    2.9990 h1        1 MOL      0.121560
    172 H81         6.2240   -0.6030    0.6200 hn        1 MOL      0.111623
    173 Ca1        -1.1550   -0.1600   -1.3930 Ca        1 MOL      1.705192
    174 O23        -0.6210   -2.6300   -1.8850 oh        1 MOL     -0.833682
    175 H82         0.2230   -2.8760   -2.2460 ho        1 MOL      0.396951
    176 H83        -1.2270   -3.3080   -2.2040 ho        1 MOL      0.396951
    177 O24        -0.8260   -0.5100   -3.9490 oh        1 MOL     -0.833682
    178 H84        -1.4290   -0.2440   -4.6420 ho        1 MOL      0.396951
    179 H85        -0.2580   -1.1660   -4.3530 ho        1 MOL      0.396951
@<TRIPOS>BOND
     1    1    2 1   
     2    1    4 1   
     3    1    5 1   
     4    1    6 1   
     5    2    3 2   
     6    2    7 1   
     7    7    8 1   
     8    7   15 1   
     9    8    9 1   
    10    8   11 1   
    11    8   16 1   
    12    9   10 2   
    13    9   19 1   
    14   11   12 1   
    15   11   17 1   
    16   11   18 1   
    17   12   13 1   
    18   12   14 1   
    19   19   20 1   
    20   19   28 1   
    21   20   21 1   
    22   20   23 1   
    23   20   29 1   
    24   21   22 2   
    25   21   41 1   
    26   23   24 1   
    27   23   30 1   
    28   23   31 1   
    29   24   25 1   
    30   24   32 1   
    31   24   33 1   
    32   25   26 1   
    33   25   34 1   
    34   25   35 1   
    35   26   27 1   
    36   26   36 1   
    37   26   37 1   
    38   27   38 1   
    39   27   39 1   
    40   27   40 1   
    41   41   42 1   
    42   41   49 1   
    43   42   43 1   
    44   42   45 1   
    45   42   50 1   
    46   43   44 2   
    47   43   53 1   
    48   45   46 1   
    49   45   51 1   
    50   45   52 1   
    51   46   47 1   
    52   46   48 1   
    53   53   54 1   
    54   53   57 1   
    55   54   55 1   
    56   54   58 1   
    57   54   59 1   
    58   55   56 2   
    59   55   60 1   
    60   60   61 1   
    61   60   68 1   
    62   61   62 1   
    63   61   64 1   
    64   61   69 1   
    65   62   63 2   
    66   62   74 1   
    67   64   65 1   
    68   64   70 1   
    69   64   71 1   
    70   65   66 1   
    71   65   67 2   
    72   66   72 1   
    73   66   73 1   
    74   74   75 1   
    75   74   78 1   
    76   75   76 1   
    77   75   79 1   
    78   75   80 1   
    79   76   77 2   
    80   76   81 1   
    81   81   82 1   
    82   81   93 1   
    83   82   83 1   
    84   82   85 1   
    85   82   94 1   
    86   83   84 2   
    87   83  102 1   
    88   85   86 1   
    89   85   95 1   
    90   85   96 1   
    91   86   87 ar  
    92   86   88 ar  
    93   87   89 ar  
    94   87   97 1   
    95   88   90 ar  
    96   88   98 1   
    97   89   91 ar  
    98   89   99 1   
    99   90   91 ar  
   100   90  100 1   
   101   91   92 1   
   102   92  101 1   
   103  102  103 1   
   104  102  110 1   
   105  103  104 1   
   106  103  106 1   
   107  103  111 1   
   108  104  105 2   
   109  104  121 1   
   110  106  107 1   
   111  106  108 1   
   112  106  112 1   
   113  107  109 1   
   114  107  113 1   
   115  107  114 1   
   116  108  115 1   
   117  108  116 1   
   118  108  117 1   
   119  109  118 1   
   120  109  119 1   
   121  109  120 1   
   122  121  122 1   
   123  121  127 1   
   124  122  123 1   
   125  122  125 1   
   126  122  128 1   
   127  123  124 2   
   128  123  132 1   
   129  125  126 1   
   130  125  129 1   
   131  125  130 1   
   132  126  131 1   
   133  132  133 1   
   134  132  137 1   
   135  133  134 1   
   136  133  136 1   
   137  133  138 1   
   138  134  135 2   
   139  134  142 1   
   140  136  139 1   
   141  136  140 1   
   142  136  141 1   
   143  142  143 1   
   144  142  147 1   
   145  143  144 1   
   146  143  146 1   
   147  143  148 1   
   148  144  145 2   
   149  144  152 1   
   150  146  149 1   
   151  146  150 1   
   152  146  151 1   
   153  152  153 1   
   154  152  161 1   
   155  153  154 1   
   156  153  156 1   
   157  153  162 1   
   158  154  155 2   
   159  154  167 1   
   160  156  157 1   
   161  156  163 1   
   162  156  164 1   
   163  157  158 1   
   164  157  165 1   
   165  157  166 1   
   166  158  159 1   
   167  158  160 1   
   168  167  168 1   
   169  167  172 1   
   170  168  169 1   
   171  168  170 1   
   172  168  171 1   
   173  174  175 1   
   174  174  176 1   
   175  177  178 1   
   176  177  179 1   
@<TRIPOS>SUBSTRUCTURE
     1 MOL         1 TEMP              0 ****  ****    0 ROOT
