@<TRIPOS>MOLECULE
MOL
  176   174     1     0     0
SMALL
resp


@<TRIPOS>ATOM
      1 C1          2.1330    2.7360    6.0050 c3        1 MOL     -0.235640
      2 C2          1.7290    2.3280    4.6140 c         1 MOL      0.761207
      3 O1          2.6370    1.9890    3.8150 o         1 MOL     -0.606167
      4 H1          3.2080    2.9130    6.0340 hc        1 MOL      0.056493
      5 H2          1.6080    3.6510    6.2830 hc        1 MOL      0.056493
      6 H3          1.8770    1.9420    6.7070 hc        1 MOL      0.056493
      7 N1          0.4140    2.2780    4.3650 n         1 MOL     -0.597661
      8 C3         -0.1650    2.1910    3.0150 c3        1 MOL      0.095272
      9 C4         -0.3180    3.6840    2.5360 c         1 MOL      0.591653
     10 O2         -0.4640    4.6050    3.3710 o         1 MOL     -0.577193
     11 C5         -1.4510    1.3250    3.2050 c3        1 MOL     -0.423903
     12 C6         -2.2300    0.9910    1.9060 c         1 MOL      0.913857
     13 O3         -2.4590    1.9770    1.1110 o         1 MOL     -0.817761
     14 O4         -2.5770   -0.1800    1.5880 o         1 MOL     -0.817761
     15 H4         -0.2590    2.5060    5.0800 hn        1 MOL      0.334690
     16 H5          0.4930    1.7820    2.2440 h1        1 MOL      0.015812
     17 H6         -2.1580    1.9290    3.7840 hc        1 MOL      0.118573
     18 H7         -1.1720    0.3670    3.6500 hc        1 MOL      0.118573
     19 N2         -0.1980    3.8800    1.2320 n         1 MOL     -0.366211
     20 C7         -0.0960    5.1610    0.5920 c3        1 MOL     -0.023452
     21 C8         -1.3210    5.5000   -0.2470 c         1 MOL      0.433445
     22 O5         -1.2840    6.5810   -0.8850 o         1 MOL     -0.558365
     23 C9          1.2210    5.2480   -0.2730 c3        1 MOL     -0.056009
     24 C10         1.1930    4.6560   -1.7160 c3        1 MOL     -0.085858
     25 C11         2.4810    4.8200   -2.4510 c3        1 MOL      0.043676
     26 C12         2.3310    4.2160   -3.8290 c3        1 MOL      0.104743
     27 N3          3.2430    4.8250   -4.8790 n4        1 MOL     -0.375789
     28 H8          0.0440    3.0680    0.6780 hn        1 MOL      0.262801
     29 H9          0.1040    5.9230    1.3500 h1        1 MOL      0.122588
     30 H10         2.1230    4.9580    0.2850 hc        1 MOL      0.055423
     31 H11         1.3170    6.3310   -0.3620 hc        1 MOL      0.055423
     32 H12         0.3660    5.0520   -2.3090 hc        1 MOL      0.053941
     33 H13         0.9330    3.5990   -1.6190 hc        1 MOL      0.053941
     34 H14         3.3510    4.3860   -1.9570 hc        1 MOL      0.008921
     35 H15         2.7420    5.8820   -2.5650 hc        1 MOL      0.008921
     36 H16         1.2630    4.1120   -4.0150 hx        1 MOL      0.047698
     37 H17         2.6580    3.1780   -3.7250 hx        1 MOL      0.047698
     38 H18         2.9210    5.7730   -4.9790 hn        1 MOL      0.326694
     39 H19         4.2190    4.9390   -4.6590 hn        1 MOL      0.326694
     40 H20         3.2330    4.3720   -5.7780 hn        1 MOL      0.326694
     41 N4         -2.2860    4.6000   -0.4060 n         1 MOL     -0.156570
     42 C13        -3.4470    4.8080   -1.2670 c3        1 MOL     -0.158557
     43 C14        -4.8210    4.3100   -0.7490 c         1 MOL      0.664195
     44 O6         -5.8380    4.4800   -1.4110 o         1 MOL     -0.531582
     45 C15        -3.1990    4.0130   -2.6020 c3        1 MOL     -0.228645
     46 C16        -2.8100    2.5250   -2.3210 c         1 MOL      0.742385
     47 O7         -1.7600    1.9770   -2.7130 o         1 MOL     -0.719454
     48 O8         -3.6550    1.8000   -1.7610 o         1 MOL     -0.719454
     49 H21        -2.2650    3.8440    0.2620 hn        1 MOL      0.131167
     50 H22        -3.6620    5.8710   -1.4090 h1        1 MOL      0.137986
     51 H23        -2.3210    4.3120   -3.1670 hc        1 MOL      0.076331
     52 H24        -4.1100    3.9910   -3.2000 hc        1 MOL      0.076331
     53 N5         -4.8390    3.7990    0.4920 n         1 MOL     -0.591860
     54 C17        -6.0970    3.3210    1.0910 c3        1 MOL      0.028556
     55 C18        -6.6400    2.0700    0.5360 c         1 MOL      0.441598
     56 O9         -7.8370    1.8410    0.7250 o         1 MOL     -0.596289
     57 H25        -4.0040    3.4220    0.9220 hn        1 MOL      0.399763
     58 H26        -6.9020    4.0510    1.0660 h1        1 MOL      0.077305
     59 H27        -5.8920    3.0530    2.1320 h1        1 MOL      0.077305
     60 N6         -5.9820    1.2510   -0.2930 n         1 MOL      0.003514
     61 C19        -6.6010    0.0500   -0.9410 c3        1 MOL     -0.079755
     62 C20        -6.7230   -1.1910   -0.0130 c         1 MOL      0.385215
     63 O10        -7.3650   -2.1610   -0.3400 o         1 MOL     -0.478054
     64 C21        -6.0380   -0.2690   -2.3210 c3        1 MOL     -0.424360
     65 C22        -4.7030   -0.9700   -2.2850 c         1 MOL      0.890389
     66 N7         -4.2250   -1.2530   -3.4540 n         1 MOL     -0.742229
     67 O11        -4.0270   -1.1760   -1.3310 o         1 MOL     -0.663587
     68 H28        -5.0130    1.5120   -0.4580 hn        1 MOL      0.033293
     69 H29        -7.5930    0.3170   -1.3010 h1        1 MOL      0.148964
     70 H30        -5.9130    0.6890   -2.8390 hc        1 MOL      0.143500
     71 H31        -6.6640   -1.0110   -2.8070 hc        1 MOL      0.143500
     72 H32        -4.7440   -0.9220   -4.2440 hn        1 MOL      0.326182
     73 H33        -3.2560   -1.5400   -3.5620 hn        1 MOL      0.326182
     74 N8         -6.0370   -1.2480    1.1560 n         1 MOL     -0.254483
     75 C23        -6.1810   -2.3230    2.0910 c3        1 MOL      0.003939
     76 C24        -5.0170   -3.2780    2.2490 c         1 MOL      0.426508
     77 O12        -5.1160   -4.1190    3.1310 o         1 MOL     -0.566303
     78 H34        -5.4610   -0.4590    1.4420 hn        1 MOL      0.203114
     79 H35        -7.0610   -2.9470    1.9420 h1        1 MOL      0.073006
     80 H36        -6.4110   -1.8280    3.0270 h1        1 MOL      0.073006
     81 N9         -3.8930   -3.1150    1.5390 n         1 MOL     -0.168437
     82 C25        -2.7000   -3.8920    1.7230 c3        1 MOL     -0.030060
     83 C26        -1.4360   -3.1680    1.1320 c         1 MOL      0.312143
     84 O13        -1.4910   -2.3530    0.2130 o         1 MOL     -0.517430
     85 C27        -2.9100   -5.3150    1.0730 c3        1 MOL     -0.142925
     86 C28        -3.2650   -5.2930   -0.3790 ca        1 MOL      0.240075
     87 C29        -2.3150   -5.1360   -1.4420 ca        1 MOL     -0.359130
     88 C30        -4.6120   -5.3850   -0.6850 ca        1 MOL     -0.359130
     89 C31        -2.7350   -5.0350   -2.7950 ca        1 MOL     -0.104105
     90 C32        -5.0400   -5.4890   -2.0590 ca        1 MOL     -0.104105
     91 C33        -4.0780   -5.2610   -3.1000 ca        1 MOL      0.176769
     92 O14        -4.5290   -5.2920   -4.3800 oh        1 MOL     -0.450303
     93 H37        -3.9070   -2.4140    0.8120 hn        1 MOL      0.286686
     94 H38        -2.5360   -4.0480    2.7880 h1        1 MOL      0.099652
     95 H39        -3.6100   -5.9880    1.5750 hc        1 MOL      0.070819
     96 H40        -2.0090   -5.9010    1.2570 hc        1 MOL      0.070819
     97 H41        -1.2880   -4.9500   -1.1540 ha        1 MOL      0.198913
     98 H42        -5.3500   -5.5070    0.0840 ha        1 MOL      0.198913
     99 H43        -2.0710   -4.7630   -3.5900 ha        1 MOL      0.123157
    100 H44        -6.0610   -5.7960   -2.2070 ha        1 MOL      0.123157
    101 H45        -3.8020   -5.4030   -4.9960 ho        1 MOL      0.337664
    102 N10        -0.2740   -3.5100    1.7050 n         1 MOL     -0.367724
    103 C34         0.9770   -2.7720    1.6250 c3        1 MOL      0.117036
    104 C35         2.0760   -3.5710    0.9130 c         1 MOL      0.378213
    105 O15         2.2910   -4.7600    1.1070 o         1 MOL     -0.545945
    106 C36         1.4160   -2.4830    3.0910 c3        1 MOL      0.252327
    107 C37         0.4570   -1.6660    3.9340 c3        1 MOL      0.034247
    108 C38         2.8430   -1.9210    3.1940 c3        1 MOL     -0.474534
    109 C39         0.6230   -1.7780    5.4470 c3        1 MOL     -0.240417
    110 H46        -0.4390   -4.0700    2.5270 hn        1 MOL      0.257750
    111 H47         0.8590   -1.8040    1.1460 h1        1 MOL      0.080427
    112 H48         1.4620   -3.4620    3.5610 hc        1 MOL     -0.031933
    113 H49        -0.5850   -1.8980    3.6920 hc        1 MOL      0.012338
    114 H50         0.5880   -0.6460    3.5680 hc        1 MOL      0.012338
    115 H51         3.1350   -1.6360    4.2140 hc        1 MOL      0.111769
    116 H52         3.5520   -2.6670    2.8210 hc        1 MOL      0.111769
    117 H53         2.8410   -1.0150    2.5910 hc        1 MOL      0.111769
    118 H54         0.0810   -0.9560    5.9220 hc        1 MOL      0.062921
    119 H55         0.2520   -2.7510    5.7740 hc        1 MOL      0.062921
    120 H56         1.6760   -1.7270    5.7260 hc        1 MOL      0.062921
    121 N11         2.9080   -2.9120    0.0830 n         1 MOL     -0.021008
    122 C40         4.0050   -3.4110   -0.7620 c3        1 MOL      0.014755
    123 C41         5.2990   -2.9330   -0.1980 c         1 MOL      0.430019
    124 O16         5.4510   -1.9670    0.5210 o         1 MOL     -0.412924
    125 C42         3.7390   -2.9740   -2.2450 c3        1 MOL     -0.185521
    126 O17         4.2120   -1.6670   -2.5000 oh        1 MOL     -0.318399
    127 H57         2.6180   -1.9550   -0.0540 hn        1 MOL      0.033181
    128 H58         3.9960   -4.5010   -0.6990 h1        1 MOL      0.084090
    129 H59         2.6720   -3.1250   -2.3440 h1        1 MOL      0.101845
    130 H60         4.2160   -3.6860   -2.9150 h1        1 MOL      0.101845
    131 H61         3.8630   -1.4590   -3.3750 ho        1 MOL      0.344978
    132 N12         6.4160   -3.5220   -0.6400 n         1 MOL     -0.416448
    133 C43         7.7610   -2.9930   -0.3960 c3        1 MOL      0.116350
    134 C44         8.0290   -1.6210   -1.1170 c         1 MOL      0.536525
    135 O18         8.8640   -0.9540   -0.5720 o         1 MOL     -0.505951
    136 C45         8.8240   -4.0710   -0.7590 c3        1 MOL     -0.344467
    137 H62         6.4060   -4.4380   -1.0740 hn        1 MOL      0.277227
    138 H63         7.9290   -2.8500    0.6690 h1        1 MOL      0.101900
    139 H64         8.9720   -4.8220    0.0220 hc        1 MOL      0.104367
    140 H65         8.6020   -4.6310   -1.6630 hc        1 MOL      0.104367
    141 H66         9.7390   -3.4890   -0.8560 hc        1 MOL      0.104367
    142 N13         7.2810   -1.2300   -2.1590 n         1 MOL     -0.504460
    143 C46         7.3310    0.1530   -2.5910 c3        1 MOL      0.358287
    144 C47         6.6440    1.1240   -1.6100 c         1 MOL      0.273927
    145 O19         7.1620    2.2110   -1.3290 o         1 MOL     -0.507423
    146 C48         6.7620    0.3090   -3.9990 c3        1 MOL     -0.326725
    147 H67         6.4770   -1.7520   -2.4830 hn        1 MOL      0.208816
    148 H68         8.3710    0.4700   -2.6200 h1        1 MOL      0.038514
    149 H69         7.1600    1.2710   -4.3270 hc        1 MOL      0.075098
    150 H70         7.0140   -0.5270   -4.6440 hc        1 MOL      0.075098
    151 H71         5.6790    0.4240   -3.8910 hc        1 MOL      0.075098
    152 N14         5.5560    0.6930   -0.9600 n         1 MOL      0.071749
    153 C49         4.7900    1.3950    0.1280 c3        1 MOL     -0.394260
    154 C50         5.5990    1.4590    1.4210 c         1 MOL      0.620367
    155 O20         5.7320    2.5510    2.0010 o         1 MOL     -0.572290
    156 C51         3.3520    0.7840    0.4200 c3        1 MOL      0.248126
    157 C52         2.5150    1.1740   -0.7800 c3        1 MOL     -0.035805
    158 C53         1.1310    0.6360   -0.5760 c         1 MOL      0.649385
    159 O21         0.6890   -0.3980   -1.1440 o         1 MOL     -0.701757
    160 O22         0.2520    1.3480    0.0100 o         1 MOL     -0.701757
    161 H72         5.1380   -0.1520   -1.3110 hn        1 MOL      0.016775
    162 H73         4.6150    2.4500   -0.0920 h1        1 MOL      0.132654
    163 H74         2.9210    1.2910    1.2860 hc        1 MOL      0.016095
    164 H75         3.3840   -0.2990    0.5130 hc        1 MOL      0.016095
    165 H76         3.0000    0.7550   -1.6570 hc        1 MOL     -0.042852
    166 H77         2.4630    2.2600   -0.8490 hc        1 MOL     -0.042852
    167 N15         6.1360    0.3820    1.8780 n         1 MOL     -0.129650
    168 C54         7.0350    0.2300    3.0210 c3        1 MOL     -0.482217
    169 H78         7.9310    0.8280    2.8590 h1        1 MOL      0.168062
    170 H79         6.5320    0.5690    3.9270 h1        1 MOL      0.168062
    171 H80         7.3120   -0.8180    3.1290 h1        1 MOL      0.168062
    172 H81         6.1210   -0.4020    1.2410 hn        1 MOL      0.144801
    173 Ca1        -1.8630    0.0920   -0.8590 Ca        1 MOL      1.724437
    174 O23        -0.9850   -1.1560   -3.1190 oh        1 MOL     -0.914779
    175 H82        -0.1290   -1.4620   -2.8170 ho        1 MOL      0.433093
    176 H83        -0.9820   -1.3390   -4.0630 ho        1 MOL      0.433093
@<TRIPOS>BOND
     1    1    2 1   
     2    1    4 1   
     3    1    5 1   
     4    1    6 1   
     5    2    3 2   
     6    2    7 1   
     7    7    8 1   
     8    7   15 1   
     9    8    9 1   
    10    8   11 1   
    11    8   16 1   
    12    9   10 2   
    13    9   19 1   
    14   11   12 1   
    15   11   17 1   
    16   11   18 1   
    17   12   13 1   
    18   12   14 1   
    19   19   20 1   
    20   19   28 1   
    21   20   21 1   
    22   20   23 1   
    23   20   29 1   
    24   21   22 2   
    25   21   41 1   
    26   23   24 1   
    27   23   30 1   
    28   23   31 1   
    29   24   25 1   
    30   24   32 1   
    31   24   33 1   
    32   25   26 1   
    33   25   34 1   
    34   25   35 1   
    35   26   27 1   
    36   26   36 1   
    37   26   37 1   
    38   27   38 1   
    39   27   39 1   
    40   27   40 1   
    41   41   42 1   
    42   41   49 1   
    43   42   43 1   
    44   42   45 1   
    45   42   50 1   
    46   43   44 2   
    47   43   53 1   
    48   45   46 1   
    49   45   51 1   
    50   45   52 1   
    51   46   47 1   
    52   46   48 1   
    53   53   54 1   
    54   53   57 1   
    55   54   55 1   
    56   54   58 1   
    57   54   59 1   
    58   55   56 2   
    59   55   60 1   
    60   60   61 1   
    61   60   68 1   
    62   61   62 1   
    63   61   64 1   
    64   61   69 1   
    65   62   63 2   
    66   62   74 1   
    67   64   65 1   
    68   64   70 1   
    69   64   71 1   
    70   65   66 1   
    71   65   67 2   
    72   66   72 1   
    73   66   73 1   
    74   74   75 1   
    75   74   78 1   
    76   75   76 1   
    77   75   79 1   
    78   75   80 1   
    79   76   77 2   
    80   76   81 1   
    81   81   82 1   
    82   81   93 1   
    83   82   83 1   
    84   82   85 1   
    85   82   94 1   
    86   83   84 2   
    87   83  102 1   
    88   85   86 1   
    89   85   95 1   
    90   85   96 1   
    91   86   87 ar  
    92   86   88 ar  
    93   87   89 ar  
    94   87   97 1   
    95   88   90 ar  
    96   88   98 1   
    97   89   91 ar  
    98   89   99 1   
    99   90   91 ar  
   100   90  100 1   
   101   91   92 1   
   102   92  101 1   
   103  102  103 1   
   104  102  110 1   
   105  103  104 1   
   106  103  106 1   
   107  103  111 1   
   108  104  105 2   
   109  104  121 1   
   110  106  107 1   
   111  106  108 1   
   112  106  112 1   
   113  107  109 1   
   114  107  113 1   
   115  107  114 1   
   116  108  115 1   
   117  108  116 1   
   118  108  117 1   
   119  109  118 1   
   120  109  119 1   
   121  109  120 1   
   122  121  122 1   
   123  121  127 1   
   124  122  123 1   
   125  122  125 1   
   126  122  128 1   
   127  123  124 2   
   128  123  132 1   
   129  125  126 1   
   130  125  129 1   
   131  125  130 1   
   132  126  131 1   
   133  132  133 1   
   134  132  137 1   
   135  133  134 1   
   136  133  136 1   
   137  133  138 1   
   138  134  135 2   
   139  134  142 1   
   140  136  139 1   
   141  136  140 1   
   142  136  141 1   
   143  142  143 1   
   144  142  147 1   
   145  143  144 1   
   146  143  146 1   
   147  143  148 1   
   148  144  145 2   
   149  144  152 1   
   150  146  149 1   
   151  146  150 1   
   152  146  151 1   
   153  152  153 1   
   154  152  161 1   
   155  153  154 1   
   156  153  156 1   
   157  153  162 1   
   158  154  155 2   
   159  154  167 1   
   160  156  157 1   
   161  156  163 1   
   162  156  164 1   
   163  157  158 1   
   164  157  165 1   
   165  157  166 1   
   166  158  159 1   
   167  158  160 1   
   168  167  168 1   
   169  167  172 1   
   170  168  169 1   
   171  168  170 1   
   172  168  171 1   
   173  174  175 1   
   174  174  176 1   
@<TRIPOS>SUBSTRUCTURE
     1 MOL         1 TEMP              0 ****  ****    0 ROOT
