@<TRIPOS>MOLECULE
MOL
  182   178     1     0     0
SMALL
resp


@<TRIPOS>ATOM
      1 C1         -1.8000   -3.0320    5.8970 c3        1 MOL     -0.258233
      2 C2         -1.3570   -2.8190    4.4160 c         1 MOL      0.696827
      3 O1         -2.2400   -2.8210    3.5840 o         1 MOL     -0.610764
      4 H1         -2.0310   -2.0670    6.3500 hc        1 MOL      0.063515
      5 H2         -2.6860   -3.6660    5.9240 hc        1 MOL      0.063515
      6 H3         -0.9940   -3.5100    6.4530 hc        1 MOL      0.063515
      7 N1         -0.1140   -2.4760    4.1910 n         1 MOL     -0.542575
      8 C3          0.4580   -2.2430    2.8580 c3        1 MOL      0.046519
      9 C4          0.5350   -3.5530    2.0100 c         1 MOL      0.504138
     10 O2          1.3650   -4.4250    2.3270 o         1 MOL     -0.522669
     11 C5          1.8760   -1.7360    3.1000 c3        1 MOL     -0.361405
     12 C6          2.7360   -1.4730    1.8440 c         1 MOL      0.809883
     13 O3          3.9130   -1.1250    2.0030 o         1 MOL     -0.685059
     14 O4          2.1500   -1.4300    0.7410 o         1 MOL     -0.685059
     15 H4          0.5810   -2.5950    4.9130 hn        1 MOL      0.329699
     16 H5         -0.1090   -1.4400    2.3970 h1        1 MOL      0.011767
     17 H6          2.3940   -2.4120    3.7730 hc        1 MOL      0.094836
     18 H7          1.8090   -0.7430    3.5320 hc        1 MOL      0.094836
     19 N2         -0.2130   -3.7500    0.9210 n         1 MOL     -0.216930
     20 C7         -0.4300   -5.0610    0.3110 c3        1 MOL     -0.095059
     21 C8          0.8420   -5.5940   -0.4030 c         1 MOL      0.387644
     22 O5          1.0500   -6.8090   -0.4490 o         1 MOL     -0.540325
     23 C9         -1.5460   -4.9320   -0.6140 c3        1 MOL     -0.264547
     24 C10        -2.8790   -4.8720    0.1400 c3        1 MOL     -0.008183
     25 C11        -4.0830   -4.8410   -0.9000 c3        1 MOL     -0.165654
     26 C12        -4.3920   -6.1830   -1.4960 c3        1 MOL      0.148972
     27 N3         -5.4750   -6.1600   -2.4390 n4        1 MOL     -0.396934
     28 H8         -0.8570   -3.0250    0.6460 hn        1 MOL      0.224424
     29 H9         -0.6490   -5.7620    1.1230 h1        1 MOL      0.126283
     30 H10        -1.5540   -5.7660   -1.3170 hc        1 MOL      0.106523
     31 H11        -1.4400   -4.0730   -1.2770 hc        1 MOL      0.106523
     32 H12        -3.0910   -3.9780    0.7250 hc        1 MOL      0.082667
     33 H13        -2.9370   -5.7440    0.8040 hc        1 MOL      0.082667
     34 H14        -3.8470   -4.1540   -1.7170 hc        1 MOL      0.075323
     35 H15        -4.9210   -4.4350   -0.3330 hc        1 MOL      0.075323
     36 H16        -4.7150   -6.8090   -0.6610 hx        1 MOL      0.057346
     37 H17        -3.4790   -6.6460   -1.8630 hx        1 MOL      0.057346
     38 H18        -6.3280   -5.8130   -2.0460 hn        1 MOL      0.334712
     39 H19        -5.2930   -5.5130   -3.1840 hn        1 MOL      0.334712
     40 H20        -5.6390   -7.0540   -2.8910 hn        1 MOL      0.334712
     41 N4          1.7080   -4.7200   -0.8820 n         1 MOL     -0.047406
     42 C13         2.9680   -5.1110   -1.5080 c3        1 MOL     -0.116362
     43 C14         4.2140   -4.7790   -0.6530 c         1 MOL      0.487904
     44 O6          5.2820   -5.2460   -0.9840 o         1 MOL     -0.537321
     45 C15         3.2510   -4.5050   -2.8930 c3        1 MOL     -0.090676
     46 C16         3.1950   -2.9800   -3.0540 c         1 MOL      0.777537
     47 O7          2.8890   -2.2520   -2.0690 o         1 MOL     -0.725505
     48 O8          3.4840   -2.5620   -4.2060 o         1 MOL     -0.725505
     49 H21         1.5660   -3.7190   -0.9090 hn        1 MOL      0.046193
     50 H22         2.9050   -6.1850   -1.6840 h1        1 MOL      0.114610
     51 H23         2.5120   -4.8720   -3.6010 hc        1 MOL      0.034913
     52 H24         4.2000   -4.8430   -3.3230 hc        1 MOL      0.034913
     53 N5          4.1430   -4.0250    0.4200 n         1 MOL     -0.229086
     54 C17         5.3570   -3.7030    1.2060 c3        1 MOL     -0.001578
     55 C18         6.3270   -2.6520    0.6230 c         1 MOL      0.444128
     56 O9          7.5480   -2.8440    0.8040 o         1 MOL     -0.531167
     57 H25         3.2530   -3.7360    0.7870 hn        1 MOL      0.197637
     58 H26         5.9840   -4.5630    1.4150 h1        1 MOL      0.049582
     59 H27         5.0410   -3.3060    2.1690 h1        1 MOL      0.049582
     60 N6          5.7220   -1.7410   -0.2010 n         1 MOL     -0.010612
     61 C19         6.4630   -0.7310   -0.8700 c3        1 MOL     -0.129999
     62 C20         6.6390    0.5610    0.0920 c         1 MOL      0.332749
     63 O10         7.2850    1.5070   -0.2470 o         1 MOL     -0.460903
     64 C21         5.7650   -0.3960   -2.2110 c3        1 MOL     -0.260159
     65 C22         4.6460    0.6830   -2.2200 c         1 MOL      0.470385
     66 N7          4.5900    1.4690   -3.2280 n         1 MOL     -0.769573
     67 O11         3.7520    0.7600   -1.3370 o         1 MOL     -0.284553
     68 H28         4.7030   -1.7820   -0.2460 hn        1 MOL     -0.007542
     69 H29         7.4860   -1.0880   -0.9630 h1        1 MOL      0.120726
     70 H30         5.5230   -1.3450   -2.6940 hc        1 MOL      0.134655
     71 H31         6.4770    0.0330   -2.9160 hc        1 MOL      0.134655
     72 H32         5.3050    1.5390   -3.9350 hn        1 MOL      0.371894
     73 H33         3.8350    2.1380   -3.2990 hn        1 MOL      0.371894
     74 N8          6.0150    0.5390    1.2560 n         1 MOL     -0.159314
     75 C23         6.1450    1.6680    2.2120 c3        1 MOL     -0.262552
     76 C24         4.9880    2.7120    1.9570 c         1 MOL      0.529492
     77 O12         4.9180    3.6750    2.7420 o         1 MOL     -0.586723
     78 H34         5.4770   -0.2870    1.4830 hn        1 MOL      0.226904
     79 H35         7.1090    2.1760    2.2390 h1        1 MOL      0.137118
     80 H36         5.8520    1.3030    3.1960 h1        1 MOL      0.137118
     81 N9          4.0370    2.5020    1.0460 n         1 MOL      0.048980
     82 C25         2.8320    3.4200    0.9440 c3        1 MOL     -0.002378
     83 C26         1.5400    2.6020    1.0250 c         1 MOL      0.348046
     84 O13         1.4470    1.4450    0.5800 o         1 MOL     -0.547302
     85 C27         2.9520    4.2250   -0.3580 c3        1 MOL      0.458611
     86 C28         4.1390    5.1830   -0.4830 ca        1 MOL      0.011535
     87 C29         5.4340    4.6050   -0.7330 ca        1 MOL     -0.347460
     88 C30         3.9580    6.6040   -0.4340 ca        1 MOL     -0.347460
     89 C31         6.5660    5.4080   -0.8150 ca        1 MOL     -0.041224
     90 C32         5.1460    7.3790   -0.6150 ca        1 MOL     -0.041224
     91 C33         6.4080    6.8000   -0.7670 ca        1 MOL      0.161352
     92 O14         7.5780    7.5580   -0.7510 oh        1 MOL     -0.442064
     93 H37         3.8830    1.6080    0.6080 hn        1 MOL     -0.044805
     94 H38         2.7830    4.1660    1.7400 h1        1 MOL      0.015480
     95 H39         2.0520    4.8220   -0.4810 hc        1 MOL     -0.125480
     96 H40         2.9130    3.6030   -1.2610 hc        1 MOL     -0.125480
     97 H41         5.5590    3.5340   -0.8410 ha        1 MOL      0.166844
     98 H42         3.0580    7.0070    0.0050 ha        1 MOL      0.166844
     99 H43         7.4890    4.8760   -1.0100 ha        1 MOL      0.098622
    100 H44         5.1380    8.4560   -0.5300 ha        1 MOL      0.098622
    101 H45         7.3880    8.4990   -0.7960 ho        1 MOL      0.333535
    102 N10         0.4600    3.2840    1.3810 n         1 MOL     -0.340799
    103 C34        -0.8570    2.6700    1.4320 c3        1 MOL      0.001439
    104 C35        -1.7690    3.5570    0.5080 c         1 MOL      0.470402
    105 O15        -1.7930    4.8370    0.6210 o         1 MOL     -0.544607
    106 C36        -1.4280    2.4820    2.8700 c3        1 MOL      0.023374
    107 C37        -0.6540    1.3950    3.5910 c3        1 MOL      0.045461
    108 C38        -2.9890    2.4830    3.0460 c3        1 MOL     -0.089762
    109 C39        -0.8580    1.4060    5.1090 c3        1 MOL     -0.293424
    110 H46         0.4960    4.2360    1.7150 hn        1 MOL      0.279358
    111 H47        -0.8100    1.6790    0.9850 h1        1 MOL      0.049485
    112 H48        -1.1910    3.3860    3.4320 hc        1 MOL      0.005571
    113 H49         0.3890    1.5780    3.3260 hc        1 MOL      0.063209
    114 H50        -0.9690    0.4430    3.1860 hc        1 MOL      0.063209
    115 H51        -3.3000    2.4970    4.0860 hc        1 MOL      0.026912
    116 H52        -3.3530    3.3380    2.4630 hc        1 MOL      0.026912
    117 H53        -3.2990    1.5150    2.6450 hc        1 MOL      0.026912
    118 H54        -1.8920    1.1790    5.3630 hc        1 MOL      0.076695
    119 H55        -0.1350    0.7480    5.5960 hc        1 MOL      0.076695
    120 H56        -0.6960    2.4340    5.4380 hc        1 MOL      0.076695
    121 N11        -2.5110    2.9490   -0.4370 n         1 MOL     -0.251317
    122 C40        -3.5560    3.6630   -1.1900 c3        1 MOL     -0.038907
    123 C41        -4.8840    3.6320   -0.5080 c         1 MOL      0.470137
    124 O16        -5.0950    3.0460    0.5880 o         1 MOL     -0.374608
    125 C42        -3.6140    3.1030   -2.5700 c3        1 MOL      0.031341
    126 O17        -3.6820    1.7240   -2.5340 oh        1 MOL     -0.574527
    127 H57        -2.4530    1.9680   -0.6450 hn        1 MOL      0.247958
    128 H58        -3.3480    4.7260   -1.3420 h1        1 MOL      0.067613
    129 H59        -2.6470    3.3380   -3.0280 h1        1 MOL      0.056105
    130 H60        -4.3380    3.6380   -3.1710 h1        1 MOL      0.056105
    131 H61        -2.7840    1.4150   -2.3910 ho        1 MOL      0.401054
    132 N12        -5.8990    4.2380   -1.1760 n         1 MOL     -0.464324
    133 C43        -7.2750    4.1330   -0.7280 c3        1 MOL      0.134708
    134 C44        -7.8100    2.7110   -0.8860 c         1 MOL      0.500279
    135 O18        -8.3170    2.1370    0.0270 o         1 MOL     -0.499434
    136 C45        -8.1830    5.1890   -1.3960 c3        1 MOL     -0.267863
    137 H62        -5.7590    4.8800   -1.9530 hn        1 MOL      0.314326
    138 H63        -7.3240    4.2290    0.3560 h1        1 MOL      0.070573
    139 H64        -9.1800    5.2140   -0.9390 hc        1 MOL      0.081327
    140 H65        -7.6550    6.1380   -1.4640 hc        1 MOL      0.081327
    141 H66        -8.2970    4.8850   -2.4370 hc        1 MOL      0.081327
    142 N13        -7.5240    2.0160   -2.0180 n         1 MOL     -0.448178
    143 C46        -7.7930    0.5750   -2.2460 c3        1 MOL      0.155502
    144 C47        -7.1430   -0.4240   -1.2550 c         1 MOL      0.305374
    145 O19        -7.6990   -1.5000   -1.0420 o         1 MOL     -0.537091
    146 C48        -7.2590    0.3390   -3.6600 c3        1 MOL     -0.309625
    147 H67        -7.1950    2.5540   -2.8080 hn        1 MOL      0.263345
    148 H68        -8.8710    0.4010   -2.2810 h1        1 MOL      0.082541
    149 H69        -7.3390   -0.6940   -3.9770 hc        1 MOL      0.082476
    150 H70        -7.8230    0.9600   -4.3590 hc        1 MOL      0.082476
    151 H71        -6.1950    0.5750   -3.6620 hc        1 MOL      0.082476
    152 N14        -6.1120   -0.0180   -0.5460 n         1 MOL     -0.068518
    153 C49        -5.5010   -0.7450    0.5300 c3        1 MOL     -0.069553
    154 C50        -6.0680   -0.3020    1.8910 c         1 MOL      0.524434
    155 O20        -6.4060   -1.2010    2.6890 o         1 MOL     -0.561950
    156 C51        -3.9760   -0.4670    0.4450 c3        1 MOL     -0.006084
    157 C52        -3.3050   -1.0900   -0.7440 c3        1 MOL      0.083370
    158 C53        -1.8070   -0.6050   -0.7430 c         1 MOL      0.810833
    159 O21        -0.8910   -1.0860   -0.0790 o         1 MOL     -0.790739
    160 O22        -1.5560    0.3980   -1.3940 o         1 MOL     -0.790739
    161 H72        -5.7760    0.9020   -0.7780 hn        1 MOL      0.234984
    162 H73        -5.7290   -1.8110    0.5160 h1        1 MOL      0.068365
    163 H74        -3.5870   -0.9620    1.3340 hc        1 MOL      0.044393
    164 H75        -3.8810    0.6110    0.5590 hc        1 MOL      0.044393
    165 H76        -3.7630   -0.6920   -1.6400 hc        1 MOL     -0.092874
    166 H77        -3.2590   -2.1770   -0.7690 hc        1 MOL     -0.092874
    167 N15        -6.2320    1.0080    2.1580 n         1 MOL     -0.116910
    168 C54        -6.8070    1.6030    3.3700 c3        1 MOL     -0.355745
    169 H78        -6.6420    2.6800    3.3590 h1        1 MOL      0.135971
    170 H79        -7.8780    1.4000    3.4020 h1        1 MOL      0.135971
    171 H80        -6.3280    1.1710    4.2500 h1        1 MOL      0.135971
    172 H81        -5.9490    1.5680    1.3720 hn        1 MOL      0.067767
    173 Ca1         1.2250   -0.3090   -1.2910 Ca        1 MOL      1.821963
    174 O23         0.8820    2.0160   -2.6990 oh        1 MOL     -0.837186
    175 H82         0.8970    1.8410   -3.6350 ho        1 MOL      0.391736
    176 H83         1.0340    2.9600   -2.6260 ho        1 MOL      0.391736
    177 O24         1.7150   -0.5020   -4.0160 oh        1 MOL     -0.837186
    178 H84         2.0990    0.1650   -4.5870 ho        1 MOL      0.391736
    179 H85         2.2100   -1.2960   -4.1970 ho        1 MOL      0.391736
    180 O25        -0.4180   -2.4110   -2.9460 oh        1 MOL     -0.837186
    181 H86        -0.3420   -1.8090   -3.6870 ho        1 MOL      0.391736
    182 H87        -0.9320   -3.1430   -3.2870 ho        1 MOL      0.391736
@<TRIPOS>BOND
     1    1    2 1   
     2    1    4 1   
     3    1    5 1   
     4    1    6 1   
     5    2    3 2   
     6    2    7 1   
     7    7    8 1   
     8    7   15 1   
     9    8    9 1   
    10    8   11 1   
    11    8   16 1   
    12    9   10 2   
    13    9   19 1   
    14   11   12 1   
    15   11   17 1   
    16   11   18 1   
    17   12   13 1   
    18   12   14 1   
    19   19   20 1   
    20   19   28 1   
    21   20   21 1   
    22   20   23 1   
    23   20   29 1   
    24   21   22 2   
    25   21   41 1   
    26   23   24 1   
    27   23   30 1   
    28   23   31 1   
    29   24   25 1   
    30   24   32 1   
    31   24   33 1   
    32   25   26 1   
    33   25   34 1   
    34   25   35 1   
    35   26   27 1   
    36   26   36 1   
    37   26   37 1   
    38   27   38 1   
    39   27   39 1   
    40   27   40 1   
    41   41   42 1   
    42   41   49 1   
    43   42   43 1   
    44   42   45 1   
    45   42   50 1   
    46   43   44 2   
    47   43   53 1   
    48   45   46 1   
    49   45   51 1   
    50   45   52 1   
    51   46   47 1   
    52   46   48 1   
    53   53   54 1   
    54   53   57 1   
    55   54   55 1   
    56   54   58 1   
    57   54   59 1   
    58   55   56 2   
    59   55   60 1   
    60   60   61 1   
    61   60   68 1   
    62   61   62 1   
    63   61   64 1   
    64   61   69 1   
    65   62   63 2   
    66   62   74 1   
    67   64   65 1   
    68   64   70 1   
    69   64   71 1   
    70   65   66 1   
    71   65   67 2   
    72   66   72 1   
    73   66   73 1   
    74   74   75 1   
    75   74   78 1   
    76   75   76 1   
    77   75   79 1   
    78   75   80 1   
    79   76   77 2   
    80   76   81 1   
    81   81   82 1   
    82   81   93 1   
    83   82   83 1   
    84   82   85 1   
    85   82   94 1   
    86   83   84 2   
    87   83  102 1   
    88   85   86 1   
    89   85   95 1   
    90   85   96 1   
    91   86   87 ar  
    92   86   88 ar  
    93   87   89 ar  
    94   87   97 1   
    95   88   90 ar  
    96   88   98 1   
    97   89   91 ar  
    98   89   99 1   
    99   90   91 ar  
   100   90  100 1   
   101   91   92 1   
   102   92  101 1   
   103  102  103 1   
   104  102  110 1   
   105  103  104 1   
   106  103  106 1   
   107  103  111 1   
   108  104  105 2   
   109  104  121 1   
   110  106  107 1   
   111  106  108 1   
   112  106  112 1   
   113  107  109 1   
   114  107  113 1   
   115  107  114 1   
   116  108  115 1   
   117  108  116 1   
   118  108  117 1   
   119  109  118 1   
   120  109  119 1   
   121  109  120 1   
   122  121  122 1   
   123  121  127 1   
   124  122  123 1   
   125  122  125 1   
   126  122  128 1   
   127  123  124 2   
   128  123  132 1   
   129  125  126 1   
   130  125  129 1   
   131  125  130 1   
   132  126  131 1   
   133  132  133 1   
   134  132  137 1   
   135  133  134 1   
   136  133  136 1   
   137  133  138 1   
   138  134  135 2   
   139  134  142 1   
   140  136  139 1   
   141  136  140 1   
   142  136  141 1   
   143  142  143 1   
   144  142  147 1   
   145  143  144 1   
   146  143  146 1   
   147  143  148 1   
   148  144  145 2   
   149  144  152 1   
   150  146  149 1   
   151  146  150 1   
   152  146  151 1   
   153  152  153 1   
   154  152  161 1   
   155  153  154 1   
   156  153  156 1   
   157  153  162 1   
   158  154  155 2   
   159  154  167 1   
   160  156  157 1   
   161  156  163 1   
   162  156  164 1   
   163  157  158 1   
   164  157  165 1   
   165  157  166 1   
   166  158  159 1   
   167  158  160 1   
   168  167  168 1   
   169  167  172 1   
   170  168  169 1   
   171  168  170 1   
   172  168  171 1   
   173  174  175 1   
   174  174  176 1   
   175  177  178 1   
   176  177  179 1   
   177  180  181 1   
   178  180  182 1   
@<TRIPOS>SUBSTRUCTURE
     1 MOL         1 TEMP              0 ****  ****    0 ROOT
