@<TRIPOS>MOLECULE
MOL
  182   178     1     0     0
SMALL
resp


@<TRIPOS>ATOM
      1 C1          1.4240    2.6100    6.5290 c3        1 MOL     -0.290164
      2 C2          1.1590    2.2210    5.0550 c         1 MOL      0.747194
      3 O1          2.0690    2.0990    4.2370 o         1 MOL     -0.629847
      4 H1          1.4130    1.7120    7.1480 hc        1 MOL      0.076445
      5 H2          2.3980    3.0940    6.6090 hc        1 MOL      0.076445
      6 H3          0.6480    3.2950    6.8700 hc        1 MOL      0.076445
      7 N1         -0.0890    2.2340    4.5830 n         1 MOL     -0.605760
      8 C3         -0.5450    2.0680    3.2310 c3        1 MOL     -0.058399
      9 C4         -0.2820    3.3830    2.5270 c         1 MOL      0.714816
     10 O2         -0.8510    4.3970    2.9290 o         1 MOL     -0.600076
     11 C5         -1.9820    1.6480    3.1780 c3        1 MOL      0.071502
     12 C6         -2.7370    1.4420    1.7860 c         1 MOL      0.337276
     13 O3         -2.2630    1.9270    0.7170 o         1 MOL     -0.571820
     14 O4         -3.8170    0.7900    1.8280 o         1 MOL     -0.571820
     15 H4         -0.7590    2.3400    5.3220 hn        1 MOL      0.304733
     16 H5          0.0570    1.3400    2.6940 h1        1 MOL      0.053540
     17 H6         -2.6490    2.3170    3.7210 hc        1 MOL      0.029601
     18 H7         -2.0070    0.7660    3.8150 hc        1 MOL      0.029601
     19 N2          0.5330    3.2860    1.4840 n         1 MOL     -0.230570
     20 C7          0.9990    4.4750    0.7600 c3        1 MOL     -0.192022
     21 C8         -0.0990    5.2960    0.0860 c         1 MOL      0.655880
     22 O5          0.0800    6.5160    0.0040 o         1 MOL     -0.577997
     23 C9          2.1260    4.0840   -0.2100 c3        1 MOL      0.164596
     24 C10         2.9310    5.2940   -0.6850 c3        1 MOL      0.003766
     25 C11         4.3600    5.0030   -1.3050 c3        1 MOL      0.065592
     26 C12         4.9690    6.2540   -2.0250 c3        1 MOL      0.141071
     27 N3          6.3810    5.9870   -2.2630 n4        1 MOL     -0.462859
     28 H8          0.8740    2.3680    1.2370 hn        1 MOL      0.165475
     29 H9          1.4360    5.0890    1.5460 h1        1 MOL      0.089077
     30 H10         1.7920    3.6130   -1.1300 hc        1 MOL      0.006755
     31 H11         2.8080    3.5770    0.4680 hc        1 MOL      0.006755
     32 H12         3.0000    6.0830    0.0710 hc        1 MOL     -0.006303
     33 H13         2.3210    5.8220   -1.4210 hc        1 MOL     -0.006303
     34 H14         4.2230    4.2190   -2.0480 hc        1 MOL     -0.007881
     35 H15         5.0900    4.5950   -0.6040 hc        1 MOL     -0.007881
     36 H16         4.7580    7.1710   -1.4780 hx        1 MOL      0.041199
     37 H17         4.6850    6.3540   -3.0800 hx        1 MOL      0.041199
     38 H18         6.4800    5.1360   -2.8050 hn        1 MOL      0.357420
     39 H19         6.7860    6.6930   -2.8590 hn        1 MOL      0.357420
     40 H20         6.8420    6.0670   -1.3750 hn        1 MOL      0.357420
     41 N4         -1.2200    4.6450   -0.3060 n         1 MOL     -0.487317
     42 C13        -2.4290    5.3820   -0.8510 c3        1 MOL      0.119034
     43 C14        -3.7520    5.1050   -0.1680 c         1 MOL      0.388526
     44 O6         -4.7640    5.7410   -0.5480 o         1 MOL     -0.542200
     45 C15        -2.4900    5.1720   -2.4050 c3        1 MOL     -0.458090
     46 C16        -2.2880    3.6760   -2.8760 c         1 MOL      0.849886
     47 O7         -2.6600    2.7110   -2.1700 o         1 MOL     -0.727201
     48 O8         -1.8760    3.4360   -4.0320 o         1 MOL     -0.727201
     49 H21        -1.2890    3.6390   -0.2850 hn        1 MOL      0.182495
     50 H22        -2.2830    6.4410   -0.6470 h1        1 MOL      0.124157
     51 H23        -1.8870    5.9520   -2.8600 hc        1 MOL      0.137181
     52 H24        -3.5140    5.4130   -2.6780 hc        1 MOL      0.137181
     53 N5         -3.8790    4.2460    0.8820 n         1 MOL     -0.125850
     54 C17        -5.1630    3.8960    1.4440 c3        1 MOL     -0.242525
     55 C18        -6.0340    2.8630    0.7560 c         1 MOL      0.660697
     56 O9         -7.1440    2.6280    1.2590 o         1 MOL     -0.614721
     57 H25        -3.0230    3.7820    1.1440 hn        1 MOL      0.149316
     58 H26        -5.7490    4.8090    1.5640 h1        1 MOL      0.120030
     59 H27        -4.9120    3.5780    2.4550 h1        1 MOL      0.120030
     60 N6         -5.6370    2.2810   -0.3210 n         1 MOL     -0.404893
     61 C19        -6.4220    1.2390   -1.0830 c3        1 MOL      0.023973
     62 C20        -6.6940   -0.1140   -0.2970 c         1 MOL      0.362414
     63 O10        -7.4290   -0.9820   -0.6900 o         1 MOL     -0.527849
     64 C21        -5.8810    0.9320   -2.5140 c3        1 MOL     -0.699871
     65 C22        -4.8080   -0.2290   -2.6410 c         1 MOL      0.871586
     66 N7         -5.1010   -1.1390   -3.4710 n         1 MOL     -0.821337
     67 O11        -3.8570   -0.2740   -1.8920 o         1 MOL     -0.626269
     68 H28        -4.8260    2.6790   -0.7840 hn        1 MOL      0.313139
     69 H29        -7.3730    1.7200   -1.3110 h1        1 MOL      0.144078
     70 H30        -5.4760    1.8760   -2.8860 hc        1 MOL      0.232480
     71 H31        -6.7730    0.5830   -3.0210 hc        1 MOL      0.232480
     72 H32        -5.9700   -1.1410   -3.9810 hn        1 MOL      0.398193
     73 H33        -4.4350   -1.8990   -3.4630 hn        1 MOL      0.398193
     74 N8         -6.0630   -0.2700    0.8510 n         1 MOL      0.011467
     75 C23        -6.1540   -1.4220    1.8530 c3        1 MOL     -0.484616
     76 C24        -5.2880   -2.6420    1.6300 c         1 MOL      0.597193
     77 O12        -5.4530   -3.6630    2.3570 o         1 MOL     -0.559303
     78 H34        -5.2970    0.3440    1.0710 hn        1 MOL      0.184819
     79 H35        -7.2220   -1.6490    1.8080 h1        1 MOL      0.188253
     80 H36        -5.9190   -0.9740    2.8170 h1        1 MOL      0.188253
     81 N9         -4.2810   -2.4530    0.8300 n         1 MOL     -0.144219
     82 C25        -3.0940   -3.3820    0.6890 c3        1 MOL      0.190029
     83 C26        -1.7060   -2.7320    0.7070 c         1 MOL      0.277006
     84 O13        -1.5340   -1.6230    0.2470 o         1 MOL     -0.342191
     85 C27        -3.2810   -4.0910   -0.6360 c3        1 MOL      0.041922
     86 C28        -4.5920   -4.8040   -0.6720 ca        1 MOL     -0.027690
     87 C29        -4.7210   -6.1610   -0.2550 ca        1 MOL     -0.270298
     88 C30        -5.7700   -4.1460   -1.2030 ca        1 MOL     -0.270298
     89 C31        -5.9530   -6.7940   -0.3110 ca        1 MOL     -0.077872
     90 C32        -6.9900   -4.7780   -1.0790 ca        1 MOL     -0.077872
     91 C33        -7.1180   -6.0950   -0.7040 ca        1 MOL      0.254323
     92 O14        -8.2460   -6.7830   -0.8140 oh        1 MOL     -0.536884
     93 H37        -4.2100   -1.6170    0.2590 hn        1 MOL     -0.029528
     94 H38        -3.2180   -4.0920    1.5090 h1        1 MOL      0.029434
     95 H39        -2.4550   -4.7830   -0.7770 hc        1 MOL      0.015328
     96 H40        -3.3290   -3.3330   -1.4220 hc        1 MOL      0.015328
     97 H41        -3.8840   -6.7310    0.1210 ha        1 MOL      0.160435
     98 H42        -5.8560   -3.1350   -1.5570 ha        1 MOL      0.160435
     99 H43        -5.9840   -7.8280    0.0210 ha        1 MOL      0.095198
    100 H44        -7.8550   -4.2940   -1.5150 ha        1 MOL      0.095198
    101 H45        -9.0740   -6.2910   -0.7920 ho        1 MOL      0.407688
    102 N10        -0.6810   -3.4810    1.1930 n         1 MOL     -0.425893
    103 C34         0.7030   -3.0170    1.0950 c3        1 MOL     -0.074768
    104 C35         1.5970   -3.9870    0.3280 c         1 MOL      0.515551
    105 O15         1.3950   -5.1500    0.3710 o         1 MOL     -0.543080
    106 C36         1.2870   -2.5150    2.4750 c3        1 MOL      0.065105
    107 C37         1.2960   -3.7410    3.3750 c3        1 MOL     -0.057209
    108 C38         0.5090   -1.3290    3.0660 c3        1 MOL     -0.223266
    109 C39         1.9690   -3.5470    4.7530 c3        1 MOL     -0.157682
    110 H46        -0.9160   -4.4070    1.5290 hn        1 MOL      0.288763
    111 H47         0.5910   -2.1390    0.4590 h1        1 MOL      0.176723
    112 H48         2.3090   -2.1580    2.2990 hc        1 MOL     -0.030795
    113 H49         1.8190   -4.5480    2.8580 hc        1 MOL      0.054112
    114 H50         0.3050   -4.1440    3.5830 hc        1 MOL      0.054112
    115 H51         0.2500   -0.7230    2.1980 hc        1 MOL      0.083643
    116 H52        -0.3120   -1.7550    3.6560 hc        1 MOL      0.083643
    117 H53         1.1630   -0.7970    3.7510 hc        1 MOL      0.083643
    118 H54         1.3750   -2.8870    5.3860 hc        1 MOL      0.039563
    119 H55         2.0350   -4.5580    5.1770 hc        1 MOL      0.039563
    120 H56         2.9910   -3.1740    4.7710 hc        1 MOL      0.039563
    121 N11         2.5100   -3.4490   -0.4280 n         1 MOL     -0.146385
    122 C40         3.5830   -4.1500   -1.1580 c3        1 MOL      0.056826
    123 C41         4.9630   -3.9250   -0.4760 c         1 MOL      0.471819
    124 O16         4.9560   -3.2900    0.5620 o         1 MOL     -0.436133
    125 C42         3.7130   -3.5470   -2.5620 c3        1 MOL     -0.275793
    126 O17         4.0030   -2.2020   -2.4690 oh        1 MOL     -0.262483
    127 H57         2.5590   -2.4430   -0.3780 hn        1 MOL      0.028445
    128 H58         3.3120   -5.2020   -1.1030 h1        1 MOL      0.077416
    129 H59         2.7430   -3.7660   -3.0220 h1        1 MOL      0.109745
    130 H60         4.4670   -4.0700   -3.1470 h1        1 MOL      0.109745
    131 H61         4.0060   -1.7990   -3.3390 ho        1 MOL      0.352568
    132 N12         6.0640   -4.4470   -1.0150 n         1 MOL     -0.408666
    133 C43         7.4430   -4.1240   -0.6620 c3        1 MOL      0.061738
    134 C44         7.8670   -2.6680   -0.8130 c         1 MOL      0.490739
    135 O18         8.5260   -2.1460    0.0270 o         1 MOL     -0.485936
    136 C45         8.3320   -5.0360   -1.5380 c3        1 MOL     -0.316569
    137 H62         5.8980   -4.9480   -1.8700 hn        1 MOL      0.271386
    138 H63         7.4760   -4.3570    0.4080 h1        1 MOL      0.107343
    139 H64         8.1010   -6.1010   -1.4920 hc        1 MOL      0.100610
    140 H65         8.1090   -4.7460   -2.5640 hc        1 MOL      0.100610
    141 H66         9.4010   -4.8320   -1.4360 hc        1 MOL      0.100610
    142 N13         7.3740   -2.0120   -1.8740 n         1 MOL     -0.316370
    143 C46         7.8000   -0.6430   -2.1760 c3        1 MOL      0.019236
    144 C47         7.1680    0.3060   -1.1400 c         1 MOL      0.400176
    145 O19         7.6940    1.4350   -0.9310 o         1 MOL     -0.536561
    146 C48         7.3900   -0.2870   -3.5630 c3        1 MOL     -0.339825
    147 H67         6.7820   -2.5290   -2.5160 hn        1 MOL      0.221964
    148 H68         8.8800   -0.5250   -2.1070 h1        1 MOL      0.127516
    149 H69         7.6880   -1.0280   -4.2990 hc        1 MOL      0.100610
    150 H70         6.3160   -0.1040   -3.6180 hc        1 MOL      0.100610
    151 H71         7.9610    0.5610   -3.9300 hc        1 MOL      0.100610
    152 N14         5.9630   -0.0930   -0.5290 n         1 MOL     -0.048638
    153 C49         5.2250    0.5450    0.5400 c3        1 MOL     -0.102589
    154 C50         5.9090    0.1630    1.9130 c         1 MOL      0.546646
    155 O20         6.2050    1.1220    2.6420 o         1 MOL     -0.543272
    156 C51         3.7730    0.0920    0.4340 c3        1 MOL      0.073549
    157 C52         3.0310    0.6040   -0.7950 c3        1 MOL      0.204330
    158 C53         1.5270    0.3800   -0.7910 c         1 MOL      0.848656
    159 O21         1.0270   -0.2350   -1.7630 o         1 MOL     -0.813931
    160 O22         0.7250    0.8850    0.0020 o         1 MOL     -0.813931
    161 H72         5.6670   -1.0350   -0.7190 hn        1 MOL     -0.008516
    162 H73         5.2220    1.6340    0.5760 h1        1 MOL      0.076463
    163 H74         3.2610    0.4970    1.3090 hc        1 MOL      0.016638
    164 H75         3.6990   -0.9970    0.5140 hc        1 MOL      0.016638
    165 H76         3.4370    0.1570   -1.6960 hc        1 MOL     -0.149539
    166 H77         3.1770    1.6770   -0.9020 hc        1 MOL     -0.149539
    167 N15         6.3270   -1.0800    2.1710 n         1 MOL     -0.263438
    168 C54         7.1820   -1.3720    3.3510 c3        1 MOL     -0.238795
    169 H78         6.6600   -2.0590    4.0170 h1        1 MOL      0.110155
    170 H79         8.1150   -1.8290    3.0190 h1        1 MOL      0.110155
    171 H80         7.3990   -0.4460    3.8820 h1        1 MOL      0.110155
    172 H81         6.1090   -1.8120    1.5160 hn        1 MOL      0.224255
    173 Ca1        -1.4930    0.5100   -1.4030 Ca        1 MOL      1.768480
    174 O23         0.2410    2.2250   -3.3010 oh        1 MOL     -0.839176
    175 H82        -0.3820    2.7630   -3.7960 ho        1 MOL      0.390650
    176 H83         1.0660    2.7240   -3.3370 ho        1 MOL      0.390650
    177 O24        -2.0700    0.7750   -4.2830 oh        1 MOL     -0.839176
    178 H84        -1.9530    1.7210   -4.2410 ho        1 MOL      0.390650
    179 H85        -1.4760    0.4870   -4.9790 ho        1 MOL      0.390650
    180 O25        -1.4920   -1.9840   -2.5800 oh        1 MOL     -0.839176
    181 H86        -2.0830   -2.5100   -3.1300 ho        1 MOL      0.390650
    182 H87        -0.6460   -2.4100   -2.6750 ho        1 MOL      0.390650
@<TRIPOS>BOND
     1    1    2 1   
     2    1    4 1   
     3    1    5 1   
     4    1    6 1   
     5    2    3 2   
     6    2    7 1   
     7    7    8 1   
     8    7   15 1   
     9    8    9 1   
    10    8   11 1   
    11    8   16 1   
    12    9   10 2   
    13    9   19 1   
    14   11   12 1   
    15   11   17 1   
    16   11   18 1   
    17   12   13 1   
    18   12   14 1   
    19   19   20 1   
    20   19   28 1   
    21   20   21 1   
    22   20   23 1   
    23   20   29 1   
    24   21   22 2   
    25   21   41 1   
    26   23   24 1   
    27   23   30 1   
    28   23   31 1   
    29   24   25 1   
    30   24   32 1   
    31   24   33 1   
    32   25   26 1   
    33   25   34 1   
    34   25   35 1   
    35   26   27 1   
    36   26   36 1   
    37   26   37 1   
    38   27   38 1   
    39   27   39 1   
    40   27   40 1   
    41   41   42 1   
    42   41   49 1   
    43   42   43 1   
    44   42   45 1   
    45   42   50 1   
    46   43   44 2   
    47   43   53 1   
    48   45   46 1   
    49   45   51 1   
    50   45   52 1   
    51   46   47 1   
    52   46   48 1   
    53   53   54 1   
    54   53   57 1   
    55   54   55 1   
    56   54   58 1   
    57   54   59 1   
    58   55   56 2   
    59   55   60 1   
    60   60   61 1   
    61   60   68 1   
    62   61   62 1   
    63   61   64 1   
    64   61   69 1   
    65   62   63 2   
    66   62   74 1   
    67   64   65 1   
    68   64   70 1   
    69   64   71 1   
    70   65   66 1   
    71   65   67 2   
    72   66   72 1   
    73   66   73 1   
    74   74   75 1   
    75   74   78 1   
    76   75   76 1   
    77   75   79 1   
    78   75   80 1   
    79   76   77 2   
    80   76   81 1   
    81   81   82 1   
    82   81   93 1   
    83   82   83 1   
    84   82   85 1   
    85   82   94 1   
    86   83   84 2   
    87   83  102 1   
    88   85   86 1   
    89   85   95 1   
    90   85   96 1   
    91   86   87 ar  
    92   86   88 ar  
    93   87   89 ar  
    94   87   97 1   
    95   88   90 ar  
    96   88   98 1   
    97   89   91 ar  
    98   89   99 1   
    99   90   91 ar  
   100   90  100 1   
   101   91   92 1   
   102   92  101 1   
   103  102  103 1   
   104  102  110 1   
   105  103  104 1   
   106  103  106 1   
   107  103  111 1   
   108  104  105 2   
   109  104  121 1   
   110  106  107 1   
   111  106  108 1   
   112  106  112 1   
   113  107  109 1   
   114  107  113 1   
   115  107  114 1   
   116  108  115 1   
   117  108  116 1   
   118  108  117 1   
   119  109  118 1   
   120  109  119 1   
   121  109  120 1   
   122  121  122 1   
   123  121  127 1   
   124  122  123 1   
   125  122  125 1   
   126  122  128 1   
   127  123  124 2   
   128  123  132 1   
   129  125  126 1   
   130  125  129 1   
   131  125  130 1   
   132  126  131 1   
   133  132  133 1   
   134  132  137 1   
   135  133  134 1   
   136  133  136 1   
   137  133  138 1   
   138  134  135 2   
   139  134  142 1   
   140  136  139 1   
   141  136  140 1   
   142  136  141 1   
   143  142  143 1   
   144  142  147 1   
   145  143  144 1   
   146  143  146 1   
   147  143  148 1   
   148  144  145 2   
   149  144  152 1   
   150  146  149 1   
   151  146  150 1   
   152  146  151 1   
   153  152  153 1   
   154  152  161 1   
   155  153  154 1   
   156  153  156 1   
   157  153  162 1   
   158  154  155 2   
   159  154  167 1   
   160  156  157 1   
   161  156  163 1   
   162  156  164 1   
   163  157  158 1   
   164  157  165 1   
   165  157  166 1   
   166  158  159 1   
   167  158  160 1   
   168  167  168 1   
   169  167  172 1   
   170  168  169 1   
   171  168  170 1   
   172  168  171 1   
   173  174  175 1   
   174  174  176 1   
   175  177  178 1   
   176  177  179 1   
   177  180  181 1   
   178  180  182 1   
@<TRIPOS>SUBSTRUCTURE
     1 MOL         1 TEMP              0 ****  ****    0 ROOT
