@<TRIPOS>MOLECULE
MOL
  189   185     1     0     0
SMALL
resp


@<TRIPOS>ATOM
      1 C1          0.8910   -3.8590    6.1990 c3        1 MOL     -0.403687
      2 C2          1.3560   -3.3080    4.8190 c         1 MOL      0.671014
      3 O1          1.1010   -2.1370    4.4590 o         1 MOL     -0.575931
      4 H1          1.0210   -3.0890    6.9590 hc        1 MOL      0.109894
      5 H2         -0.1610   -4.1380    6.1430 hc        1 MOL      0.109894
      6 H3          1.4870   -4.7330    6.4610 hc        1 MOL      0.109894
      7 N1          2.0300   -4.1400    3.9800 n         1 MOL     -0.561780
      8 C3          2.5840   -3.8170    2.6420 c3        1 MOL      0.391513
      9 C4          2.5030   -4.9180    1.6190 c         1 MOL      0.321577
     10 O2          2.8260   -6.0670    1.9790 o         1 MOL     -0.539445
     11 C5          4.0540   -3.3930    2.7450 c3        1 MOL     -0.368526
     12 C6          4.7040   -2.9940    1.3330 c         1 MOL      0.774464
     13 O3          4.1050   -2.1890    0.6080 o         1 MOL     -0.655840
     14 O4          5.7680   -3.5050    1.0340 o         1 MOL     -0.655840
     15 H4          2.2080   -5.1120    4.1880 hn        1 MOL      0.288523
     16 H5          2.1380   -2.8770    2.3100 h1        1 MOL     -0.056788
     17 H6          4.6260   -4.2020    3.1940 hc        1 MOL      0.055505
     18 H7          4.1290   -2.4880    3.3500 hc        1 MOL      0.055505
     19 N2          2.4200   -4.5420    0.2810 n         1 MOL     -0.037079
     20 C7          2.6270   -5.4810   -0.8010 c3        1 MOL     -0.076404
     21 C8          3.7470   -5.1350   -1.8750 c         1 MOL      0.467416
     22 O5          4.0170   -5.9750   -2.7220 o         1 MOL     -0.572696
     23 C9          1.2110   -5.7380   -1.4440 c3        1 MOL      0.287562
     24 C10         0.6020   -4.5270   -2.0610 c3        1 MOL     -0.056523
     25 C11         0.2780   -6.5640   -0.4970 c3        1 MOL     -0.367775
     26 C12        -0.7390   -4.8010   -2.7210 c3        1 MOL     -0.225260
     27 H8          2.1210   -3.5970    0.0960 hn        1 MOL     -0.037147
     28 H9          2.9150   -6.4530   -0.3780 h1        1 MOL      0.067916
     29 H10         1.4690   -6.3920   -2.2750 hc        1 MOL     -0.055789
     30 H11         1.3230   -4.1430   -2.7740 hc        1 MOL      0.043770
     31 H12         0.5490   -3.6840   -1.3730 hc        1 MOL      0.043770
     32 H13         0.7940   -7.5100   -0.2990 hc        1 MOL      0.075083
     33 H14         0.0930   -5.9800    0.4010 hc        1 MOL      0.075083
     34 H15        -0.6670   -6.7250   -1.0180 hc        1 MOL      0.075083
     35 H16        -1.5270   -5.0230   -1.9970 hc        1 MOL      0.060655
     36 H17        -1.1260   -4.0160   -3.3740 hc        1 MOL      0.060655
     37 H18        -0.6160   -5.6350   -3.4150 hc        1 MOL      0.060655
     38 N3          4.2380   -3.8980   -1.8590 n         1 MOL     -0.363467
     39 C13         5.0560   -3.4160   -3.0430 c3        1 MOL      0.140806
     40 C14         6.2750   -2.5100   -2.7210 c         1 MOL      0.297291
     41 O6          7.0940   -2.2650   -3.5940 o         1 MOL     -0.537952
     42 C15         4.1350   -2.5930   -4.0120 c3        1 MOL     -0.304315
     43 C16         3.2230   -1.5040   -3.3870 c         1 MOL      0.780765
     44 O7          3.4210   -1.1050   -2.1910 o         1 MOL     -0.711058
     45 O8          2.3170   -0.9220   -4.0640 o         1 MOL     -0.711058
     46 H19         4.0660   -3.3450   -1.0280 hn        1 MOL      0.308902
     47 H20         5.5620   -4.2370   -3.5540 h1        1 MOL      0.086571
     48 H21         3.4570   -3.3440   -4.4380 hc        1 MOL      0.073408
     49 H22         4.6860   -2.0790   -4.7960 hc        1 MOL      0.073408
     50 N4          6.5420   -2.0430   -1.4520 n         1 MOL      0.071850
     51 C17         7.6330   -1.1830   -0.9770 c3        1 MOL     -0.344113
     52 C18         7.4780    0.2720   -1.3670 c         1 MOL      0.598662
     53 O9          8.4980    0.9070   -1.4730 o         1 MOL     -0.631295
     54 H23         5.9410   -2.4400   -0.7430 hn        1 MOL     -0.005567
     55 H24         8.5550   -1.6140   -1.3810 h1        1 MOL      0.124917
     56 H25         7.5170   -1.2190    0.1010 h1        1 MOL      0.124917
     57 N5          6.3200    0.8330   -1.7520 n         1 MOL     -0.117366
     58 C19         6.2820    2.2130   -2.3490 c3        1 MOL     -0.118771
     59 C20         6.4540    3.3310   -1.3230 c         1 MOL      0.410239
     60 O10         6.3370    4.4750   -1.8270 o         1 MOL     -0.520256
     61 C21         5.0040    2.4110   -3.1640 c3        1 MOL     -0.188155
     62 C22         3.6420    2.2560   -2.3910 c         1 MOL      0.801068
     63 O11         3.6550    1.8460   -1.2230 o         1 MOL     -0.722287
     64 O12         2.6090    2.6510   -2.9870 o         1 MOL     -0.722287
     65 H26         5.4330    0.3650   -1.6460 hn        1 MOL      0.082327
     66 H27         7.1130    2.2150   -3.0520 h1        1 MOL      0.124401
     67 H28         5.0020    1.6710   -3.9700 hc        1 MOL      0.067468
     68 H29         5.0210    3.3730   -3.6750 hc        1 MOL      0.067468
     69 N6          6.5850    3.0900   -0.0210 n         1 MOL     -0.221938
     70 C23         6.6320    4.1970    0.9900 c3        1 MOL     -0.276060
     71 C24         5.3120    4.6910    1.5510 c         1 MOL      0.537670
     72 O13         5.2920    5.7130    2.2760 o         1 MOL     -0.566178
     73 H30         6.7910    2.1660    0.3440 hn        1 MOL      0.230221
     74 H31         7.0390    5.0680    0.4740 h1        1 MOL      0.130891
     75 H32         7.2990    3.8310    1.7650 h1        1 MOL      0.130891
     76 N7          4.1740    3.9970    1.2690 n         1 MOL     -0.415800
     77 C25         2.8120    4.4610    1.6270 c3        1 MOL     -0.047272
     78 C26         1.8740    3.3460    1.8640 c         1 MOL      0.693972
     79 O14         2.1400    2.3160    1.3080 o         1 MOL     -0.701319
     80 C27         2.2250    5.2990    0.4340 c3        1 MOL      0.238661
     81 C28         2.7970    6.7160    0.1630 c3        1 MOL     -0.277684
     82 C29         1.8880    7.4840   -0.7850 c         1 MOL      0.584606
     83 N8          1.8310    7.0200   -1.9990 n         1 MOL     -0.738099
     84 O15         1.1120    8.3880   -0.4460 o         1 MOL     -0.564503
     85 H33         4.2290    3.2870    0.5450 hn        1 MOL      0.336934
     86 H34         2.8120    5.1290    2.4900 h1        1 MOL      0.062715
     87 H35         1.1900    5.4720    0.7280 hc        1 MOL     -0.005219
     88 H36         2.2600    4.6970   -0.4740 hc        1 MOL     -0.005219
     89 H37         3.8350    6.5920   -0.1720 hc        1 MOL      0.085968
     90 H38         2.8640    7.3540    1.0520 hc        1 MOL      0.085968
     91 H39         2.5240    6.4420   -2.4600 hn        1 MOL      0.351405
     92 H40         1.1230    7.3020   -2.6700 hn        1 MOL      0.351405
     93 N9          0.7880    3.4760    2.6140 n         1 MOL     -0.694466
     94 C30        -0.3190    2.5510    2.4800 c3        1 MOL      0.191791
     95 C31        -1.2020    3.0340    1.2650 c         1 MOL      0.388744
     96 O16        -1.6290    4.0960    1.2740 o         1 MOL     -0.518314
     97 C32        -1.2040    2.2390    3.7100 c3        1 MOL      0.272054
     98 C33        -0.5980    1.2060    4.6380 c3        1 MOL     -0.415075
     99 C34        -1.5560    3.4820    4.5840 c3        1 MOL     -0.415075
    100 H41         0.5440    4.4190    2.8740 hn        1 MOL      0.310466
    101 H42         0.0600    1.5670    2.2140 h1        1 MOL      0.177070
    102 H43        -2.1030    1.7170    3.3760 hc        1 MOL      0.001657
    103 H44        -0.3510    0.2760    4.1130 hc        1 MOL      0.089126
    104 H45         0.2760    1.5310    5.1970 hc        1 MOL      0.089126
    105 H46        -1.3370    0.8800    5.3720 hc        1 MOL      0.089126
    106 H47        -0.6260    3.9400    4.9360 hc        1 MOL      0.089126
    107 H48        -2.1050    4.1500    3.9080 hc        1 MOL      0.089126
    108 H49        -2.1790    3.3670    5.4620 hc        1 MOL      0.089126
    109 N10        -1.6740    2.0560    0.5160 n         1 MOL     -0.171146
    110 C35        -2.9210    2.1700   -0.3080 c3        1 MOL      0.019485
    111 C36        -4.1440    2.1440    0.5770 c         1 MOL      0.282039
    112 O17        -4.1280    1.6680    1.7520 o         1 MOL     -0.396417
    113 C37        -2.9040    1.0710   -1.3620 c3        1 MOL     -0.343790
    114 C38        -3.9820    1.1820   -2.4790 c         1 MOL      0.703445
    115 N11        -3.7750    1.6990   -3.6660 n         1 MOL     -0.796785
    116 O18        -5.0730    0.7900   -2.2280 o         1 MOL     -0.539065
    117 H50        -1.1080    1.2250    0.5800 hn        1 MOL      0.115309
    118 H51        -2.9800    3.1590   -0.7530 h1        1 MOL      0.067887
    119 H52        -2.9380    0.1060   -0.8520 hc        1 MOL      0.147008
    120 H53        -2.0090    1.2280   -1.9580 hc        1 MOL      0.147008
    121 H54        -2.9140    2.1870   -3.8840 hn        1 MOL      0.372995
    122 H55        -4.5500    1.7130   -4.3110 hn        1 MOL      0.372995
    123 N12        -5.3110    2.4910    0.0840 n         1 MOL     -0.175037
    124 C39        -6.5970    2.2160    0.8060 c3        1 MOL      0.022944
    125 C40        -6.9160    0.7130    0.9260 c         1 MOL      0.528710
    126 O19        -7.5420    0.3430    1.9230 o         1 MOL     -0.623882
    127 C41        -7.6980    2.9760    0.0070 c3        1 MOL     -0.178259
    128 C42        -7.9410    2.5290   -1.4040 ca        1 MOL      0.029893
    129 C43        -8.5830    1.2850   -1.6890 ca        1 MOL     -0.088345
    130 C44        -7.6610    3.4070   -2.4680 ca        1 MOL     -0.088345
    131 C45        -8.8340    0.9670   -3.0430 ca        1 MOL     -0.416973
    132 C46        -7.9440    3.1130   -3.8360 ca        1 MOL     -0.416973
    133 C47        -8.5530    1.8540   -4.0720 ca        1 MOL      0.515952
    134 O20        -8.8790    1.5090   -5.3610 oh        1 MOL     -0.587495
    135 H56        -5.3980    2.9490   -0.8130 hn        1 MOL      0.175130
    136 H57        -6.4990    2.5930    1.8270 h1        1 MOL      0.076103
    137 H58        -7.3990    4.0270   -0.0540 hc        1 MOL      0.058483
    138 H59        -8.7000    2.9880    0.4360 hc        1 MOL      0.058483
    139 H60        -8.9620    0.6720   -0.8870 ha        1 MOL      0.123857
    140 H61        -7.1490    4.3500   -2.2910 ha        1 MOL      0.123857
    141 H62        -9.1850   -0.0310   -3.2730 ha        1 MOL      0.188929
    142 H63        -7.7300    3.7060   -4.7070 ha        1 MOL      0.188929
    143 H64        -9.1990    0.6050   -5.3610 ho        1 MOL      0.415860
    144 N13        -6.4190   -0.1800    0.0710 n         1 MOL     -0.055395
    145 C48        -6.6100   -1.6260    0.2790 c3        1 MOL     -0.062718
    146 C49        -5.5120   -2.2950    1.2480 c         1 MOL      0.248876
    147 O21        -5.7510   -3.3350    1.8540 o         1 MOL     -0.476276
    148 C50        -6.5740   -2.2520   -1.1140 c3        1 MOL     -0.080199
    149 C51        -6.8860   -3.7250   -1.2620 c3        1 MOL     -0.332589
    150 C52        -7.3690   -3.8690   -2.6700 c         1 MOL      0.720515
    151 O22        -6.5010   -3.8060   -3.5690 o         1 MOL     -0.752135
    152 O23        -8.5650   -4.0920   -2.9660 o         1 MOL     -0.752135
    153 H65        -6.1790    0.1930   -0.8400 hn        1 MOL      0.153679
    154 H66        -7.6090   -1.8910    0.6440 h1        1 MOL      0.099087
    155 H67        -5.5970   -2.1750   -1.5980 hc        1 MOL      0.087354
    156 H68        -7.2900   -1.5890   -1.6030 hc        1 MOL      0.087354
    157 H69        -7.6910   -3.8970   -0.5520 hc        1 MOL      0.081595
    158 H70        -6.0000   -4.3410   -1.0920 hc        1 MOL      0.081595
    159 N14        -4.3980   -1.5540    1.4660 n         1 MOL      0.073417
    160 C53        -3.4000   -1.8850    2.4950 c3        1 MOL     -0.173639
    161 C54        -3.9290   -1.3760    3.8940 c         1 MOL      0.482420
    162 O24        -3.9060   -2.0960    4.8230 o         1 MOL     -0.557340
    163 C55        -2.0180   -1.3040    2.1760 c3        1 MOL      0.182832
    164 C56        -1.4200   -2.0790    1.0420 c3        1 MOL     -0.346894
    165 C57        -0.0360   -1.4760    0.6200 c         1 MOL      0.921004
    166 O25        -0.0800   -0.2480    0.4960 o         1 MOL     -0.727192
    167 O26         0.9880   -2.1310    0.3450 o         1 MOL     -0.727192
    168 H71        -4.2200   -0.7480    0.8830 hn        1 MOL     -0.024566
    169 H72        -3.2630   -2.9620    2.5290 h1        1 MOL      0.106657
    170 H73        -1.4240   -1.3320    3.0930 hc        1 MOL     -0.015485
    171 H74        -2.1100   -0.2560    1.8850 hc        1 MOL     -0.015485
    172 H75        -2.0880   -1.9250    0.1950 hc        1 MOL      0.092434
    173 H76        -1.2400   -3.1250    1.2790 hc        1 MOL      0.092434
    174 N15        -4.7260   -0.3050    3.8900 n         1 MOL     -0.056111
    175 C58        -5.2600    0.3080    5.0850 c3        1 MOL     -0.185461
    176 H77        -4.6500    1.1710    5.3540 h1        1 MOL      0.069613
    177 H78        -6.2850    0.6320    4.9020 h1        1 MOL      0.069613
    178 H79        -5.2470   -0.4140    5.9010 h1        1 MOL      0.069613
    179 H80        -4.5920    0.2180    3.0370 hn        1 MOL      0.081964
    180 Ca1         2.6140   -0.0890    0.1520 Ca        1 MOL      1.721861
    181 O27         1.9510   -0.2370    2.6780 oh        1 MOL     -0.860690
    182 H81         2.3630    0.4300    3.2290 ho        1 MOL      0.409185
    183 H82         1.5710   -0.8630    3.2950 ho        1 MOL      0.409185
    184 O28         4.5480    0.7500    1.8270 oh        1 MOL     -0.860690
    185 H83         5.5000    0.6620    1.8930 ho        1 MOL      0.409185
    186 H84         4.2880    1.2010    2.6360 ho        1 MOL      0.409185
    187 O29         0.8110    0.4600   -2.1130 oh        1 MOL     -0.860690
    188 H85         1.1640   -0.1130   -2.7970 ho        1 MOL      0.409185
    189 H86         1.2970    1.2750   -2.2120 ho        1 MOL      0.409185
@<TRIPOS>BOND
     1    1    2 1   
     2    1    4 1   
     3    1    5 1   
     4    1    6 1   
     5    2    3 2   
     6    2    7 1   
     7    7    8 1   
     8    7   15 1   
     9    8    9 1   
    10    8   11 1   
    11    8   16 1   
    12    9   10 2   
    13    9   19 1   
    14   11   12 1   
    15   11   17 1   
    16   11   18 1   
    17   12   13 1   
    18   12   14 1   
    19   19   20 1   
    20   19   27 1   
    21   20   21 1   
    22   20   23 1   
    23   20   28 1   
    24   21   22 2   
    25   21   38 1   
    26   23   24 1   
    27   23   25 1   
    28   23   29 1   
    29   24   26 1   
    30   24   30 1   
    31   24   31 1   
    32   25   32 1   
    33   25   33 1   
    34   25   34 1   
    35   26   35 1   
    36   26   36 1   
    37   26   37 1   
    38   38   39 1   
    39   38   46 1   
    40   39   40 1   
    41   39   42 1   
    42   39   47 1   
    43   40   41 2   
    44   40   50 1   
    45   42   43 1   
    46   42   48 1   
    47   42   49 1   
    48   43   44 1   
    49   43   45 1   
    50   50   51 1   
    51   50   54 1   
    52   51   52 1   
    53   51   55 1   
    54   51   56 1   
    55   52   53 2   
    56   52   57 1   
    57   57   58 1   
    58   57   65 1   
    59   58   59 1   
    60   58   61 1   
    61   58   66 1   
    62   59   60 2   
    63   59   69 1   
    64   61   62 1   
    65   61   67 1   
    66   61   68 1   
    67   62   63 1   
    68   62   64 1   
    69   69   70 1   
    70   69   73 1   
    71   70   71 1   
    72   70   74 1   
    73   70   75 1   
    74   71   72 2   
    75   71   76 1   
    76   76   77 1   
    77   76   85 1   
    78   77   78 1   
    79   77   80 1   
    80   77   86 1   
    81   78   79 2   
    82   78   93 1   
    83   80   81 1   
    84   80   87 1   
    85   80   88 1   
    86   81   82 1   
    87   81   89 1   
    88   81   90 1   
    89   82   83 1   
    90   82   84 2   
    91   83   91 1   
    92   83   92 1   
    93   93   94 1   
    94   93  100 1   
    95   94   95 1   
    96   94   97 1   
    97   94  101 1   
    98   95   96 2   
    99   95  109 1   
   100   97   98 1   
   101   97   99 1   
   102   97  102 1   
   103   98  103 1   
   104   98  104 1   
   105   98  105 1   
   106   99  106 1   
   107   99  107 1   
   108   99  108 1   
   109  109  110 1   
   110  109  117 1   
   111  110  111 1   
   112  110  113 1   
   113  110  118 1   
   114  111  112 2   
   115  111  123 1   
   116  113  114 1   
   117  113  119 1   
   118  113  120 1   
   119  114  115 1   
   120  114  116 2   
   121  115  121 1   
   122  115  122 1   
   123  123  124 1   
   124  123  135 1   
   125  124  125 1   
   126  124  127 1   
   127  124  136 1   
   128  125  126 2   
   129  125  144 1   
   130  127  128 1   
   131  127  137 1   
   132  127  138 1   
   133  128  129 ar  
   134  128  130 ar  
   135  129  131 ar  
   136  129  139 1   
   137  130  132 ar  
   138  130  140 1   
   139  131  133 ar  
   140  131  141 1   
   141  132  133 ar  
   142  132  142 1   
   143  133  134 1   
   144  134  143 1   
   145  144  145 1   
   146  144  153 1   
   147  145  146 1   
   148  145  148 1   
   149  145  154 1   
   150  146  147 2   
   151  146  159 1   
   152  148  149 1   
   153  148  155 1   
   154  148  156 1   
   155  149  150 1   
   156  149  157 1   
   157  149  158 1   
   158  150  151 1   
   159  150  152 1   
   160  159  160 1   
   161  159  168 1   
   162  160  161 1   
   163  160  163 1   
   164  160  169 1   
   165  161  162 2   
   166  161  174 1   
   167  163  164 1   
   168  163  170 1   
   169  163  171 1   
   170  164  165 1   
   171  164  172 1   
   172  164  173 1   
   173  165  166 1   
   174  165  167 1   
   175  174  175 1   
   176  174  179 1   
   177  175  176 1   
   178  175  177 1   
   179  175  178 1   
   180  181  182 1   
   181  181  183 1   
   182  184  185 1   
   183  184  186 1   
   184  187  188 1   
   185  187  189 1   
@<TRIPOS>SUBSTRUCTURE
     1 MOL         1 TEMP              0 ****  ****    0 ROOT
