@<TRIPOS>MOLECULE
MOL
  176   174     1     0     0
SMALL
resp


@<TRIPOS>ATOM
      1 C1          0.5200    3.6950    6.0320 c3        1 MOL     -0.287392
      2 C2          0.5080    3.4310    4.5080 c         1 MOL      0.735794
      3 O1          1.5380    3.6000    3.8740 o         1 MOL     -0.586218
      4 H1          1.4840    4.1160    6.3190 hc        1 MOL      0.075000
      5 H2         -0.2730    4.3980    6.2860 hc        1 MOL      0.075000
      6 H3          0.3600    2.7580    6.5650 hc        1 MOL      0.075000
      7 N1         -0.6550    2.9260    3.9120 n         1 MOL     -0.647351
      8 C3         -0.7830    2.6420    2.4820 c3        1 MOL      0.137757
      9 C4         -0.6580    3.9800    1.7750 c         1 MOL      0.510954
     10 O2         -1.1110    5.0170    2.2740 o         1 MOL     -0.568862
     11 C5         -2.2530    2.1280    2.2510 c3        1 MOL      0.016413
     12 C6         -2.5050    1.5760    0.8690 c         1 MOL      0.692313
     13 O3         -2.2490    2.3000   -0.0940 o         1 MOL     -0.684487
     14 O4         -2.8940    0.4040    0.6430 o         1 MOL     -0.684487
     15 H4         -1.3960    2.6630    4.5460 hn        1 MOL      0.318468
     16 H5          0.0520    1.9990    2.1860 h1        1 MOL      0.017744
     17 H6         -2.9970    2.8590    2.5510 hc        1 MOL     -0.003832
     18 H7         -2.3270    1.2880    2.9440 hc        1 MOL     -0.003832
     19 N2          0.0280    3.9440    0.6270 n         1 MOL     -0.274572
     20 C7          0.5020    5.1320   -0.0910 c3        1 MOL      0.079151
     21 C8         -0.5260    5.5580   -1.1390 c         1 MOL      0.376942
     22 O5         -0.4040    6.6390   -1.6900 o         1 MOL     -0.566107
     23 C9          1.8400    4.8530   -0.7120 c3        1 MOL     -0.000239
     24 C10         2.9810    4.3900    0.1950 c3        1 MOL     -0.279475
     25 C11         3.5000    5.5370    1.1770 c3        1 MOL     -0.145066
     26 C12         4.2250    6.6930    0.4700 c3        1 MOL      0.149308
     27 N3          4.3200    7.9610    1.1960 n4        1 MOL     -0.465634
     28 H8          0.2130    3.0720    0.1520 hn        1 MOL      0.292285
     29 H9          0.5400    5.9950    0.5670 h1        1 MOL      0.061852
     30 H10         2.1450    5.7770   -1.1960 hc        1 MOL      0.035083
     31 H11         1.7280    4.1580   -1.5400 hc        1 MOL      0.035083
     32 H12         3.7830    4.0620   -0.4640 hc        1 MOL      0.127916
     33 H13         2.6450    3.4580    0.6460 hc        1 MOL      0.127916
     34 H14         4.1880    5.1860    1.9450 hc        1 MOL      0.084686
     35 H15         2.5790    5.9270    1.6240 hc        1 MOL      0.084686
     36 H16         3.6110    6.9990   -0.3860 hx        1 MOL      0.053782
     37 H17         5.1570    6.3100    0.0500 hx        1 MOL      0.053782
     38 H18         3.4970    8.1560    1.7470 hn        1 MOL      0.355366
     39 H19         5.1170    7.8290    1.8130 hn        1 MOL      0.355366
     40 H20         4.5140    8.7130    0.5640 hn        1 MOL      0.355366
     41 N4         -1.5840    4.7780   -1.4600 n         1 MOL     -0.114209
     42 C13        -2.6570    5.1230   -2.3990 c3        1 MOL      0.150274
     43 C14        -4.0760    5.0450   -1.7850 c         1 MOL      0.399843
     44 O6         -4.8740    5.8680   -2.1300 o         1 MOL     -0.542325
     45 C15        -2.5770    4.0580   -3.5300 c3        1 MOL     -0.223665
     46 C16        -2.3940    2.6500   -3.0620 c         1 MOL      0.698881
     47 O7         -1.2270    2.1660   -3.1420 o         1 MOL     -0.704745
     48 O8         -3.3220    1.8950   -2.6930 o         1 MOL     -0.704745
     49 H21        -1.7410    3.9920   -0.8390 hn        1 MOL     -0.046608
     50 H22        -2.5770    6.0740   -2.9380 h1        1 MOL      0.070110
     51 H23        -1.7740    4.3100   -4.2180 hc        1 MOL      0.059674
     52 H24        -3.5610    4.1310   -3.9970 hc        1 MOL      0.059674
     53 N5         -4.3340    4.1240   -0.8580 n         1 MOL     -0.253025
     54 C17        -5.6230    3.9940   -0.1860 c3        1 MOL     -0.038300
     55 C18        -6.1630    2.5370   -0.2240 c         1 MOL      0.396823
     56 O9         -7.0200    2.2520    0.5940 o         1 MOL     -0.563170
     57 H25        -3.5620    3.5490   -0.5540 hn        1 MOL      0.261427
     58 H26        -6.4250    4.6880   -0.4460 h1        1 MOL      0.092739
     59 H27        -5.4640    4.2990    0.8510 h1        1 MOL      0.092739
     60 N6         -5.6680    1.6040   -1.0360 n         1 MOL     -0.166264
     61 C19        -6.4280    0.3240   -1.1910 c3        1 MOL     -0.059584
     62 C20        -6.4220   -0.6750    0.0200 c         1 MOL      0.258000
     63 O10        -7.2540   -1.5480   -0.0890 o         1 MOL     -0.465474
     64 C21        -6.0630   -0.3170   -2.5410 c3        1 MOL     -0.119163
     65 C22        -5.0630   -1.3830   -2.3870 c         1 MOL      0.572482
     66 N7         -5.2380   -2.4420   -3.1500 n         1 MOL     -0.541229
     67 O11        -4.0560   -1.2250   -1.7340 o         1 MOL     -0.572005
     68 H28        -4.8670    1.7990   -1.6210 hn        1 MOL      0.143771
     69 H29        -7.4560    0.6670   -1.2840 h1        1 MOL      0.131227
     70 H30        -5.7730    0.4190   -3.2970 hc        1 MOL      0.062392
     71 H31        -6.9890   -0.7020   -2.9470 hc        1 MOL      0.062392
     72 H32        -5.9640   -2.3700   -3.8410 hn        1 MOL      0.289260
     73 H33        -4.4320   -3.0310   -3.3650 hn        1 MOL      0.289260
     74 N8         -5.5680   -0.5400    0.9630 n         1 MOL      0.163770
     75 C23        -5.5430   -1.3120    2.1870 c3        1 MOL     -0.438535
     76 C24        -4.4380   -2.4300    2.2260 c         1 MOL      0.762466
     77 O12        -4.4620   -3.2640    3.1090 o         1 MOL     -0.605404
     78 H34        -5.0410    0.3030    0.7940 hn        1 MOL      0.130117
     79 H35        -6.5220   -1.7700    2.3070 h1        1 MOL      0.154730
     80 H36        -5.2270   -0.7310    3.0460 h1        1 MOL      0.154730
     81 N9         -3.5670   -2.4610    1.2470 n         1 MOL     -0.378068
     82 C25        -2.6060   -3.5510    0.8780 c3        1 MOL      0.320875
     83 C26        -1.1950   -2.9970    0.5730 c         1 MOL      0.380661
     84 O13        -1.0500   -2.1160   -0.3260 o         1 MOL     -0.533308
     85 C27        -3.1670   -4.3210   -0.3850 c3        1 MOL      0.036256
     86 C28        -4.3460   -5.2490   -0.0700 ca        1 MOL      0.058849
     87 C29        -5.5870   -4.6470   -0.0350 ca        1 MOL     -0.209121
     88 C30        -4.1510   -6.5760    0.2320 ca        1 MOL     -0.209121
     89 C31        -6.6580   -5.4040    0.5320 ca        1 MOL     -0.188721
     90 C32        -5.2110   -7.3880    0.7120 ca        1 MOL     -0.188721
     91 C33        -6.4500   -6.7530    0.9200 ca        1 MOL      0.278031
     92 O14        -7.4810   -7.3740    1.5420 oh        1 MOL     -0.448369
     93 H37        -3.6430   -1.7410    0.5440 hn        1 MOL      0.042846
     94 H38        -2.4300   -4.1930    1.7460 h1        1 MOL     -0.017169
     95 H39        -2.3650   -4.9790   -0.7080 hc        1 MOL     -0.021679
     96 H40        -3.4220   -3.6630   -1.2120 hc        1 MOL     -0.021679
     97 H41        -5.7210   -3.6220   -0.3610 ha        1 MOL      0.114891
     98 H42        -3.1520   -6.9690    0.2610 ha        1 MOL      0.114891
     99 H43        -7.6630   -5.0710    0.7390 ha        1 MOL      0.129114
    100 H44        -5.0040   -8.4300    0.9210 ha        1 MOL      0.129114
    101 H45        -7.3660   -8.3250    1.5490 ho        1 MOL      0.339587
    102 N10        -0.1620   -3.3620    1.3260 n         1 MOL     -0.416453
    103 C34         1.1710   -2.7790    1.3320 c3        1 MOL     -0.048055
    104 C35         2.2590   -3.9020    1.1180 c         1 MOL      0.500277
    105 O15         2.5930   -4.7970    1.8920 o         1 MOL     -0.515109
    106 C36         1.5020   -1.9050    2.6080 c3        1 MOL     -0.080619
    107 C37         0.3430   -0.8580    2.9750 c3        1 MOL      0.504188
    108 C38         2.8210   -1.1050    2.7270 c3        1 MOL     -0.097416
    109 C39         0.4670   -0.2850    4.4180 c3        1 MOL     -0.349639
    110 H46        -0.2400   -4.1800    1.9060 hn        1 MOL      0.308482
    111 H47         1.2130   -2.0940    0.4740 h1        1 MOL      0.091561
    112 H48         1.5790   -2.6620    3.3780 hc        1 MOL      0.031000
    113 H49        -0.5990   -1.4040    2.9330 hc        1 MOL     -0.136108
    114 H50         0.1180   -0.1140    2.2050 hc        1 MOL     -0.136108
    115 H51         3.1460   -1.0140    3.7630 hc        1 MOL      0.041091
    116 H52         3.5760   -1.6770    2.1950 hc        1 MOL      0.041091
    117 H53         2.7510   -0.1250    2.2500 hc        1 MOL      0.041091
    118 H54         0.5340   -1.1960    5.0160 hc        1 MOL      0.066126
    119 H55         1.3580    0.3440    4.5040 hc        1 MOL      0.066126
    120 H56        -0.4060    0.3440    4.5810 hc        1 MOL      0.066126
    121 N11         2.9170   -3.8260   -0.0510 n         1 MOL     -0.288362
    122 C40         4.0910   -4.6300   -0.4820 c3        1 MOL     -0.202259
    123 C41         5.3020   -3.7870   -0.2120 c         1 MOL      0.490644
    124 O16         5.2150   -2.5680   -0.0520 o         1 MOL     -0.266640
    125 C42         3.9380   -5.0270   -1.9830 c3        1 MOL      0.031453
    126 O17         3.9660   -3.8760   -2.8480 oh        1 MOL     -0.539003
    127 H57         2.5600   -3.1730   -0.7340 hn        1 MOL      0.236241
    128 H58         4.2060   -5.5040    0.1570 h1        1 MOL      0.141127
    129 H59         3.0360   -5.5910   -2.1980 h1        1 MOL      0.091691
    130 H60         4.7270   -5.7000   -2.3260 h1        1 MOL      0.091691
    131 H61         3.1190   -3.4440   -2.7110 ho        1 MOL      0.392208
    132 N12         6.5050   -4.4030   -0.3200 n         1 MOL     -0.397754
    133 C43         7.8350   -3.8740    0.0060 c3        1 MOL      0.143277
    134 C44         8.0680   -2.4910   -0.6180 c         1 MOL      0.450048
    135 O18         8.6200   -1.6220    0.0530 o         1 MOL     -0.518571
    136 C45         8.8000   -4.9000   -0.4130 c3        1 MOL     -0.416631
    137 H62         6.4900   -5.4150   -0.3590 hn        1 MOL      0.257518
    138 H63         7.9110   -3.7790    1.0900 h1        1 MOL      0.090680
    139 H64         9.8510   -4.6180   -0.4150 hc        1 MOL      0.122468
    140 H65         8.6690   -5.8040    0.1770 hc        1 MOL      0.122468
    141 H66         8.8000   -4.9140   -1.5060 hc        1 MOL      0.122468
    142 N13         7.6280   -2.2800   -1.8730 n         1 MOL     -0.268040
    143 C46         7.5820   -1.0830   -2.6510 c3        1 MOL      0.040784
    144 C47         6.8860    0.1420   -2.0210 c         1 MOL      0.411938
    145 O19         7.2290    1.3110   -2.1790 o         1 MOL     -0.516685
    146 C48         6.9240   -1.3960   -3.9580 c3        1 MOL     -0.329716
    147 H67         7.3040   -3.1440   -2.2850 hn        1 MOL      0.233107
    148 H68         8.5800   -0.6880   -2.8190 h1        1 MOL      0.085157
    149 H69         5.9030   -1.7420   -3.8200 hc        1 MOL      0.100665
    150 H70         6.8580   -0.5270   -4.6170 hc        1 MOL      0.100665
    151 H71         7.4780   -2.1670   -4.4980 hc        1 MOL      0.100665
    152 N14         5.8180   -0.1160   -1.1780 n         1 MOL     -0.080608
    153 C49         5.1530    0.9510   -0.3780 c3        1 MOL     -0.058683
    154 C50         5.6310    0.9300    1.0830 c         1 MOL      0.440715
    155 O20         5.9960    1.9410    1.7000 o         1 MOL     -0.541285
    156 C51         3.6720    0.7090   -0.3590 c3        1 MOL     -0.100244
    157 C52         2.8570    1.1670   -1.5950 c3        1 MOL      0.009619
    158 C53         1.3370    0.7380   -1.4450 c         1 MOL      0.678758
    159 O21         0.5150    1.4470   -0.7970 o         1 MOL     -0.743989
    160 O22         0.8820   -0.3270   -2.0420 o         1 MOL     -0.743989
    161 H72         5.4110   -1.0390   -1.1040 hn        1 MOL      0.047098
    162 H73         5.4140    1.9430   -0.7400 h1        1 MOL      0.105572
    163 H74         3.2500    1.0700    0.5750 hc        1 MOL      0.037045
    164 H75         3.4570   -0.3550   -0.2440 hc        1 MOL      0.037045
    165 H76         3.2200    0.5690   -2.4280 hc        1 MOL     -0.006515
    166 H77         3.0550    2.2240   -1.7530 hc        1 MOL     -0.006515
    167 N15         5.9150   -0.2750    1.5760 n         1 MOL     -0.073446
    168 C54         6.2270   -0.5930    2.9940 c3        1 MOL     -0.269707
    169 H78         7.1430   -0.0800    3.2870 h1        1 MOL      0.104136
    170 H79         5.4060   -0.2620    3.6300 h1        1 MOL      0.104136
    171 H80         6.3620   -1.6690    3.1050 h1        1 MOL      0.104136
    172 H81         5.6910   -1.0910    1.0200 hn        1 MOL      0.032380
    173 Ca1        -1.6760    0.1200   -1.6450 Ca        1 MOL      1.734384
    174 O23        -1.7960   -1.3930   -3.8000 oh        1 MOL     -0.884157
    175 H82        -1.5260   -2.3090   -3.8130 ho        1 MOL      0.435107
    176 H83        -2.0650   -1.2010   -4.6890 ho        1 MOL      0.435107
@<TRIPOS>BOND
     1    1    2 1   
     2    1    4 1   
     3    1    5 1   
     4    1    6 1   
     5    2    3 2   
     6    2    7 1   
     7    7    8 1   
     8    7   15 1   
     9    8    9 1   
    10    8   11 1   
    11    8   16 1   
    12    9   10 2   
    13    9   19 1   
    14   11   12 1   
    15   11   17 1   
    16   11   18 1   
    17   12   13 1   
    18   12   14 1   
    19   19   20 1   
    20   19   28 1   
    21   20   21 1   
    22   20   23 1   
    23   20   29 1   
    24   21   22 2   
    25   21   41 1   
    26   23   24 1   
    27   23   30 1   
    28   23   31 1   
    29   24   25 1   
    30   24   32 1   
    31   24   33 1   
    32   25   26 1   
    33   25   34 1   
    34   25   35 1   
    35   26   27 1   
    36   26   36 1   
    37   26   37 1   
    38   27   38 1   
    39   27   39 1   
    40   27   40 1   
    41   41   42 1   
    42   41   49 1   
    43   42   43 1   
    44   42   45 1   
    45   42   50 1   
    46   43   44 2   
    47   43   53 1   
    48   45   46 1   
    49   45   51 1   
    50   45   52 1   
    51   46   47 1   
    52   46   48 1   
    53   53   54 1   
    54   53   57 1   
    55   54   55 1   
    56   54   58 1   
    57   54   59 1   
    58   55   56 2   
    59   55   60 1   
    60   60   61 1   
    61   60   68 1   
    62   61   62 1   
    63   61   64 1   
    64   61   69 1   
    65   62   63 2   
    66   62   74 1   
    67   64   65 1   
    68   64   70 1   
    69   64   71 1   
    70   65   66 1   
    71   65   67 2   
    72   66   72 1   
    73   66   73 1   
    74   74   75 1   
    75   74   78 1   
    76   75   76 1   
    77   75   79 1   
    78   75   80 1   
    79   76   77 2   
    80   76   81 1   
    81   81   82 1   
    82   81   93 1   
    83   82   83 1   
    84   82   85 1   
    85   82   94 1   
    86   83   84 2   
    87   83  102 1   
    88   85   86 1   
    89   85   95 1   
    90   85   96 1   
    91   86   87 ar  
    92   86   88 ar  
    93   87   89 ar  
    94   87   97 1   
    95   88   90 ar  
    96   88   98 1   
    97   89   91 ar  
    98   89   99 1   
    99   90   91 ar  
   100   90  100 1   
   101   91   92 1   
   102   92  101 1   
   103  102  103 1   
   104  102  110 1   
   105  103  104 1   
   106  103  106 1   
   107  103  111 1   
   108  104  105 2   
   109  104  121 1   
   110  106  107 1   
   111  106  108 1   
   112  106  112 1   
   113  107  109 1   
   114  107  113 1   
   115  107  114 1   
   116  108  115 1   
   117  108  116 1   
   118  108  117 1   
   119  109  118 1   
   120  109  119 1   
   121  109  120 1   
   122  121  122 1   
   123  121  127 1   
   124  122  123 1   
   125  122  125 1   
   126  122  128 1   
   127  123  124 2   
   128  123  132 1   
   129  125  126 1   
   130  125  129 1   
   131  125  130 1   
   132  126  131 1   
   133  132  133 1   
   134  132  137 1   
   135  133  134 1   
   136  133  136 1   
   137  133  138 1   
   138  134  135 2   
   139  134  142 1   
   140  136  139 1   
   141  136  140 1   
   142  136  141 1   
   143  142  143 1   
   144  142  147 1   
   145  143  144 1   
   146  143  146 1   
   147  143  148 1   
   148  144  145 2   
   149  144  152 1   
   150  146  149 1   
   151  146  150 1   
   152  146  151 1   
   153  152  153 1   
   154  152  161 1   
   155  153  154 1   
   156  153  156 1   
   157  153  162 1   
   158  154  155 2   
   159  154  167 1   
   160  156  157 1   
   161  156  163 1   
   162  156  164 1   
   163  157  158 1   
   164  157  165 1   
   165  157  166 1   
   166  158  159 1   
   167  158  160 1   
   168  167  168 1   
   169  167  172 1   
   170  168  169 1   
   171  168  170 1   
   172  168  171 1   
   173  174  175 1   
   174  174  176 1   
@<TRIPOS>SUBSTRUCTURE
     1 MOL         1 TEMP              0 ****  ****    0 ROOT
