@<TRIPOS>MOLECULE
MOL
  172   171     1     0     0
SMALL
resp


@<TRIPOS>ATOM
      1 C1          0.2160    3.7600    5.6210 c3        1 MOL     -0.423309
      2 C2         -0.2160    3.3610    4.1970 c         1 MOL      0.721481
      3 O1          0.5250    3.7800    3.3320 o         1 MOL     -0.554998
      4 H1         -0.6470    3.7260    6.2840 hc        1 MOL      0.097845
      5 H2          0.9770    3.0660    5.9790 hc        1 MOL      0.097845
      6 H3          0.6240    4.7710    5.6070 hc        1 MOL      0.097845
      7 N1         -1.2820    2.5710    4.0600 n         1 MOL     -0.603295
      8 C3         -1.8130    2.2970    2.7300 c3        1 MOL      0.084451
      9 C4         -2.2340    3.5990    2.1650 c         1 MOL      0.612671
     10 O2         -2.8780    4.3760    2.9110 o         1 MOL     -0.620528
     11 C5         -3.0720    1.3430    2.8710 c3        1 MOL     -0.067188
     12 C6         -3.7360    0.8940    1.5530 c         1 MOL      0.745508
     13 O3         -4.7790    0.2370    1.6410 o         1 MOL     -0.696533
     14 O4         -3.1490    1.2150    0.4400 o         1 MOL     -0.696533
     15 H4         -1.8040    2.2110    4.8490 hn        1 MOL      0.326245
     16 H5         -1.0100    1.8680    2.1330 h1        1 MOL      0.048299
     17 H6         -3.7910    1.8160    3.5420 hc        1 MOL      0.008202
     18 H7         -2.6840    0.4140    3.2980 hc        1 MOL      0.008202
     19 N2         -1.9170    3.9410    0.9220 n         1 MOL     -0.318728
     20 C7         -1.9800    5.2710    0.3430 c3        1 MOL      0.165373
     21 C8         -2.8510    5.2700   -0.8570 c         1 MOL      0.328826
     22 O5         -3.2420    6.3760   -1.2950 o         1 MOL     -0.592548
     23 C9         -0.5330    5.7910    0.0840 c3        1 MOL     -0.261207
     24 H8         -1.2670    3.3430    0.4300 hn        1 MOL      0.258200
     25 H9         -2.4030    5.9140    1.1040 h1        1 MOL      0.031231
     26 H10        -0.4790    6.8080   -0.3300 hc        1 MOL      0.073720
     27 H11         0.0360    5.7900    1.0140 hc        1 MOL      0.073720
     28 H12        -0.0990    5.1220   -0.6610 hc        1 MOL      0.073720
     29 N3         -3.1680    4.2130   -1.5270 n         1 MOL     -0.056883
     30 C10        -4.2530    4.1250   -2.5690 c3        1 MOL     -0.160036
     31 C11        -5.5230    3.4330   -1.9360 c         1 MOL      0.513044
     32 O6         -6.4420    3.2080   -2.6620 o         1 MOL     -0.513579
     33 C12        -3.8530    3.4440   -3.9250 c3        1 MOL      0.187558
     34 C13        -3.4550    1.9570   -3.7990 c         1 MOL      0.537006
     35 O7         -3.4790    1.2880   -4.9210 o         1 MOL     -0.690220
     36 O8         -3.3290    1.3870   -2.7100 o         1 MOL     -0.690220
     37 H13        -2.8260    3.3180   -1.1970 hn        1 MOL      0.080556
     38 H14        -4.6340    5.1100   -2.8290 h1        1 MOL      0.094079
     39 H15        -3.0680    3.9820   -4.4610 hc        1 MOL     -0.037504
     40 H16        -4.7140    3.5000   -4.5930 hc        1 MOL     -0.037504
     41 N4         -5.5470    3.0970   -0.6610 n         1 MOL     -0.232990
     42 C14        -6.7180    2.5960    0.0980 c3        1 MOL     -0.073327
     43 C15        -7.4010    1.3600   -0.4250 c         1 MOL      0.557694
     44 O9         -8.6100    1.3740   -0.6630 o         1 MOL     -0.569645
     45 H17        -4.7170    3.2380   -0.1020 hn        1 MOL      0.163343
     46 H18        -7.4970    3.3560    0.1580 h1        1 MOL      0.052469
     47 H19        -6.3740    2.3320    1.0930 h1        1 MOL      0.052469
     48 N5         -6.6150    0.2710   -0.6190 n         1 MOL     -0.399483
     49 C16        -7.1030   -1.0640   -1.2010 c3        1 MOL      0.096803
     50 C17        -7.2600   -2.2850   -0.2560 c         1 MOL      0.412879
     51 O10        -8.0590   -3.2340   -0.4080 o         1 MOL     -0.542939
     52 C18        -6.1690   -1.4070   -2.4740 c3        1 MOL     -0.310558
     53 C19        -4.9660   -2.1680   -2.0070 c         1 MOL      0.515787
     54 N6         -4.9360   -3.4850   -2.1950 n         1 MOL     -0.581534
     55 O11        -4.1960   -1.6760   -1.2380 o         1 MOL     -0.520678
     56 H20        -5.6330    0.4660   -0.4820 hn        1 MOL      0.228804
     57 H21        -8.1410   -0.9660   -1.5210 h1        1 MOL      0.095941
     58 H22        -5.9080   -0.5680   -3.1270 hc        1 MOL      0.135627
     59 H23        -6.8370   -1.9550   -3.1510 hc        1 MOL      0.135627
     60 H24        -5.6980   -3.8500   -2.7330 hn        1 MOL      0.289394
     61 H25        -4.1580   -4.1300   -2.0760 hn        1 MOL      0.289394
     62 N7         -6.4730   -2.1970    0.8460 n         1 MOL     -0.202808
     63 C20        -6.3860   -3.2020    1.8880 c3        1 MOL     -0.211426
     64 C21        -5.0990   -4.0160    2.0140 c         1 MOL      0.501038
     65 O12        -4.8990   -4.6920    3.0320 o         1 MOL     -0.604873
     66 H26        -5.7960   -1.4480    0.9410 hn        1 MOL      0.249217
     67 H27        -7.2220   -3.9060    1.8700 h1        1 MOL      0.117012
     68 H28        -6.3700   -2.6590    2.8300 h1        1 MOL      0.117012
     69 N8         -4.1320   -3.8750    1.1340 n         1 MOL      0.030187
     70 C22        -2.7910   -4.4490    1.2080 c3        1 MOL     -0.117109
     71 C23        -1.7250   -3.4240    0.9310 c         1 MOL      0.446368
     72 O13        -1.9490   -2.2830    0.4270 o         1 MOL     -0.553752
     73 C24        -2.7220   -5.5260    0.1480 c3        1 MOL      0.218615
     74 C25        -3.8650   -6.5910    0.2880 c3        1 MOL     -0.432649
     75 O14        -2.7470   -4.9790   -1.1660 oh        1 MOL     -0.589009
     76 H29        -4.2760   -3.3620    0.2760 hn        1 MOL      0.050071
     77 H30        -2.6490   -4.8640    2.2050 h1        1 MOL      0.111437
     78 H31        -1.7290   -5.9600    0.2310 h1        1 MOL      0.016466
     79 H32        -2.7430   -5.7710   -1.7110 ho        1 MOL      0.425533
     80 H33        -3.9090   -6.9490    1.3210 hc        1 MOL      0.119834
     81 H34        -4.8720   -6.2170    0.1180 hc        1 MOL      0.119834
     82 H35        -3.6220   -7.3220   -0.4840 hc        1 MOL      0.119834
     83 N9         -0.4850   -3.8360    1.3230 n         1 MOL     -0.212805
     84 C26         0.6340   -2.9450    1.4030 c3        1 MOL     -0.051189
     85 C27         1.5880   -3.0480    0.2460 c         1 MOL      0.414469
     86 O15         2.2070   -4.0940    0.0010 o         1 MOL     -0.565778
     87 C28         1.3790   -3.2720    2.7470 c3        1 MOL      0.050522
     88 C29         0.5030   -3.0500    3.9620 c3        1 MOL      0.078532
     89 C30         2.6120   -2.3930    2.9810 c3        1 MOL     -0.193615
     90 C31        -0.0340   -1.6260    4.1080 c3        1 MOL     -0.008572
     91 H36        -0.3510   -4.7540    1.7470 hn        1 MOL      0.237100
     92 H37         0.3410   -1.8910    1.4430 h1        1 MOL      0.097140
     93 H38         1.6090   -4.3310    2.8640 hc        1 MOL      0.004476
     94 H39         1.1480   -3.3330    4.7980 hc        1 MOL     -0.034363
     95 H40        -0.3200   -3.7630    3.9150 hc        1 MOL     -0.034363
     96 H41         2.3680   -1.3330    2.8650 hc        1 MOL      0.038380
     97 H42         3.0490   -2.3760    3.9710 hc        1 MOL      0.038380
     98 H43         3.3310   -2.5880    2.1840 hc        1 MOL      0.038380
     99 H44        -0.7210   -1.3300    3.3180 hc        1 MOL     -0.006668
    100 H45        -0.5370   -1.6150    5.0770 hc        1 MOL     -0.006668
    101 H46         0.7500   -0.8670    4.0750 hc        1 MOL     -0.006668
    102 N10         1.6770   -2.0050   -0.6130 n         1 MOL     -0.209515
    103 C32         2.7520   -1.8460   -1.6260 c3        1 MOL      0.022138
    104 C33         4.1130   -1.6640   -0.9670 c         1 MOL      0.536352
    105 O16         4.1790   -1.2700    0.1880 o         1 MOL     -0.331369
    106 C34         2.3110   -0.6900   -2.5890 c3        1 MOL     -0.339524
    107 C35         0.9410   -1.0320   -3.1440 c         1 MOL      0.839681
    108 O17         0.7430   -2.1060   -3.7340 o         1 MOL     -0.716393
    109 O18         0.0070   -0.2020   -2.9210 o         1 MOL     -0.716393
    110 H47         1.1170   -1.2030   -0.3750 hn        1 MOL      0.107197
    111 H48         2.8860   -2.7420   -2.2300 h1        1 MOL      0.066276
    112 H49         2.9420   -0.5740   -3.4660 hc        1 MOL      0.090475
    113 H50         2.2720    0.2330   -2.0030 hc        1 MOL      0.090475
    114 N11         5.1950   -1.6580   -1.7440 n         1 MOL     -0.659633
    115 C36         6.5790   -1.5260   -1.2930 c3        1 MOL      0.364639
    116 C37         6.8470   -0.1890   -0.5820 c         1 MOL      0.310826
    117 O19         7.2300   -0.2970    0.5870 o         1 MOL     -0.490945
    118 C38         7.6130   -1.8110   -2.3990 c3        1 MOL     -0.274537
    119 C39         9.0240   -1.4730   -2.1040 ca        1 MOL      0.048542
    120 C40         9.6970   -2.2400   -1.1470 ca        1 MOL     -0.076919
    121 C41         9.6580   -0.4060   -2.7300 ca        1 MOL     -0.076919
    122 C42        11.0520   -2.0180   -0.9040 ca        1 MOL     -0.218255
    123 C43        11.0290   -0.1700   -2.4470 ca        1 MOL     -0.218255
    124 C44        11.7130   -0.9090   -1.4500 ca        1 MOL      0.010011
    125 H51         5.0820   -2.0510   -2.6620 hn        1 MOL      0.312923
    126 H52         6.6570   -2.2630   -0.4810 h1        1 MOL      0.033762
    127 H53         7.3360   -1.2630   -3.2960 hc        1 MOL      0.085084
    128 H54         7.6970   -2.8710   -2.6340 hc        1 MOL      0.085084
    129 H55         9.2210   -3.1340   -0.7590 ha        1 MOL      0.108829
    130 H56         9.1280    0.0990   -3.5160 ha        1 MOL      0.108829
    131 H57        11.5980   -2.6930   -0.2520 ha        1 MOL      0.126835
    132 H58        11.5900    0.6010   -2.9460 ha        1 MOL      0.126835
    133 H59        12.7700   -0.7420   -1.3600 ha        1 MOL      0.076481
    134 N12         6.5060    0.9930   -1.1470 n         1 MOL     -0.022694
    135 C45         6.7490    2.3670   -0.5280 c3        1 MOL     -0.053061
    136 C46         5.8990    2.5530    0.8130 c         1 MOL      0.325687
    137 O20         6.2850    3.3070    1.7240 o         1 MOL     -0.487218
    138 C47         6.2440    3.3870   -1.5900 c3        1 MOL      0.075307
    139 C48         6.1970    2.6470   -2.8840 c3        1 MOL      0.040536
    140 C49         6.0210    1.2190   -2.4250 c3        1 MOL     -0.131250
    141 H60         7.7800    2.6060   -0.2710 h1        1 MOL      0.074225
    142 H61         5.2350    3.7110   -1.3260 hc        1 MOL      0.005574
    143 H62         6.8370    4.2930   -1.7020 hc        1 MOL      0.005574
    144 H63         5.4540    3.0020   -3.5990 hc        1 MOL      0.002498
    145 H64         7.2070    2.6800   -3.2850 hc        1 MOL      0.002498
    146 H65         4.9460    1.0670   -2.3410 h1        1 MOL      0.047670
    147 H66         6.4970    0.5380   -3.1290 h1        1 MOL      0.047670
    148 N13         4.7530    1.8740    0.8560 n         1 MOL     -0.208603
    149 C50         3.9050    1.7530    2.1090 c3        1 MOL     -0.103535
    150 C51         4.6560    0.8340    3.1750 c         1 MOL      0.429554
    151 O21         4.7590    1.3140    4.3360 o         1 MOL     -0.553391
    152 C52         2.4830    1.2480    1.6810 c3        1 MOL     -0.021578
    153 C53         1.8010    2.0200    0.5220 c3        1 MOL     -0.119142
    154 C54         0.4240    1.4030    0.1690 c         1 MOL      0.548225
    155 O22         0.1910    0.1910    0.4210 o         1 MOL     -0.684454
    156 O23        -0.3970    2.0330   -0.5160 o         1 MOL     -0.684454
    157 H67         4.4150    1.5050   -0.0260 hn        1 MOL      0.232670
    158 H68         3.7940    2.7530    2.5340 h1        1 MOL      0.128024
    159 H69         1.8410    1.2980    2.5640 hc        1 MOL      0.085111
    160 H70         2.5690    0.2130    1.3430 hc        1 MOL      0.085111
    161 H71         2.4120    1.9560   -0.3840 hc        1 MOL      0.044387
    162 H72         1.6370    3.0750    0.7400 hc        1 MOL      0.044387
    163 N14         5.2490   -0.3160    2.7800 n         1 MOL      0.002517
    164 C55         6.0300   -1.1360    3.7300 c3        1 MOL     -0.104092
    165 H73         6.9800   -1.4130    3.2730 h1        1 MOL      0.050528
    166 H74         6.2180   -0.5610    4.6370 h1        1 MOL      0.050528
    167 H75         5.4710   -2.0370    3.9790 h1        1 MOL      0.050528
    168 H76         5.1720   -0.4910    1.7930 hn        1 MOL      0.036230
    169 Ca1        -1.8870   -0.0940   -1.1960 Ca        1 MOL      1.741099
    170 O24        -1.7480   -2.6080   -2.6420 oh        1 MOL     -0.841815
    171 H77        -1.8810   -3.4890   -2.2910 ho        1 MOL      0.394561
    172 H78        -0.8900   -2.6570   -3.0770 ho        1 MOL      0.394561
@<TRIPOS>BOND
     1    1    2 1   
     2    1    4 1   
     3    1    5 1   
     4    1    6 1   
     5    2    3 2   
     6    2    7 1   
     7    7    8 1   
     8    7   15 1   
     9    8    9 1   
    10    8   11 1   
    11    8   16 1   
    12    9   10 2   
    13    9   19 1   
    14   11   12 1   
    15   11   17 1   
    16   11   18 1   
    17   12   13 1   
    18   12   14 1   
    19   19   20 1   
    20   19   24 1   
    21   20   21 1   
    22   20   23 1   
    23   20   25 1   
    24   21   22 2   
    25   21   29 1   
    26   23   26 1   
    27   23   27 1   
    28   23   28 1   
    29   29   30 1   
    30   29   37 1   
    31   30   31 1   
    32   30   33 1   
    33   30   38 1   
    34   31   32 2   
    35   31   41 1   
    36   33   34 1   
    37   33   39 1   
    38   33   40 1   
    39   34   35 1   
    40   34   36 1   
    41   41   42 1   
    42   41   45 1   
    43   42   43 1   
    44   42   46 1   
    45   42   47 1   
    46   43   44 2   
    47   43   48 1   
    48   48   49 1   
    49   48   56 1   
    50   49   50 1   
    51   49   52 1   
    52   49   57 1   
    53   50   51 2   
    54   50   62 1   
    55   52   53 1   
    56   52   58 1   
    57   52   59 1   
    58   53   54 1   
    59   53   55 2   
    60   54   60 1   
    61   54   61 1   
    62   62   63 1   
    63   62   66 1   
    64   63   64 1   
    65   63   67 1   
    66   63   68 1   
    67   64   65 2   
    68   64   69 1   
    69   69   70 1   
    70   69   76 1   
    71   70   71 1   
    72   70   73 1   
    73   70   77 1   
    74   71   72 2   
    75   71   83 1   
    76   73   74 1   
    77   73   75 1   
    78   73   78 1   
    79   74   80 1   
    80   74   81 1   
    81   74   82 1   
    82   75   79 1   
    83   83   84 1   
    84   83   91 1   
    85   84   85 1   
    86   84   87 1   
    87   84   92 1   
    88   85   86 2   
    89   85  102 1   
    90   87   88 1   
    91   87   89 1   
    92   87   93 1   
    93   88   90 1   
    94   88   94 1   
    95   88   95 1   
    96   89   96 1   
    97   89   97 1   
    98   89   98 1   
    99   90   99 1   
   100   90  100 1   
   101   90  101 1   
   102  102  103 1   
   103  102  110 1   
   104  103  104 1   
   105  103  106 1   
   106  103  111 1   
   107  104  105 2   
   108  104  114 1   
   109  106  107 1   
   110  106  112 1   
   111  106  113 1   
   112  107  108 1   
   113  107  109 1   
   114  114  115 1   
   115  114  125 1   
   116  115  116 1   
   117  115  118 1   
   118  115  126 1   
   119  116  117 2   
   120  116  134 1   
   121  118  119 1   
   122  118  127 1   
   123  118  128 1   
   124  119  120 ar  
   125  119  121 ar  
   126  120  122 ar  
   127  120  129 1   
   128  121  123 ar  
   129  121  130 1   
   130  122  124 ar  
   131  122  131 1   
   132  123  124 ar  
   133  123  132 1   
   134  124  133 1   
   135  134  135 1   
   136  134  140 1   
   137  135  136 1   
   138  135  138 1   
   139  135  141 1   
   140  136  137 2   
   141  136  148 1   
   142  138  139 1   
   143  138  142 1   
   144  138  143 1   
   145  139  140 1   
   146  139  144 1   
   147  139  145 1   
   148  140  146 1   
   149  140  147 1   
   150  148  149 1   
   151  148  157 1   
   152  149  150 1   
   153  149  152 1   
   154  149  158 1   
   155  150  151 2   
   156  150  163 1   
   157  152  153 1   
   158  152  159 1   
   159  152  160 1   
   160  153  154 1   
   161  153  161 1   
   162  153  162 1   
   163  154  155 1   
   164  154  156 1   
   165  163  164 1   
   166  163  168 1   
   167  164  165 1   
   168  164  166 1   
   169  164  167 1   
   170  170  171 1   
   171  170  172 1   
@<TRIPOS>SUBSTRUCTURE
     1 MOL         1 TEMP              0 ****  ****    0 ROOT
