@<TRIPOS>MOLECULE
MOL
  172   171     1     0     0
SMALL
resp


@<TRIPOS>ATOM
      1 C1         -0.0400    3.9190    5.6890 c3        1 MOL     -0.353916
      2 C2         -0.5470    3.6910    4.2420 c         1 MOL      0.708244
      3 O1          0.1110    4.0850    3.2840 o         1 MOL     -0.608648
      4 H1         -0.3110    4.9230    6.0140 hc        1 MOL      0.086933
      5 H2         -0.4960    3.1860    6.3540 hc        1 MOL      0.086933
      6 H3          1.0450    3.8090    5.7160 hc        1 MOL      0.086933
      7 N1         -1.6010    2.9640    4.0530 n         1 MOL     -0.571144
      8 C3         -2.0610    2.5050    2.6750 c3        1 MOL      0.278116
      9 C4         -2.4720    3.6620    1.7250 c         1 MOL      0.343503
     10 O2         -3.6300    4.0370    1.8250 o         1 MOL     -0.468659
     11 C5         -3.1980    1.4670    2.9060 c3        1 MOL     -0.320852
     12 C6         -3.7700    0.7290    1.7330 c         1 MOL      0.658335
     13 O3         -3.1830    0.8970    0.5880 o         1 MOL     -0.656179
     14 O4         -4.8540    0.0760    1.8430 o         1 MOL     -0.656179
     15 H4         -2.2700    2.7790    4.7830 hn        1 MOL      0.296612
     16 H5         -1.2380    2.0330    2.1560 h1        1 MOL      0.011508
     17 H6         -3.9620    1.9600    3.4960 hc        1 MOL      0.093354
     18 H7         -2.7460    0.7050    3.5450 hc        1 MOL      0.093354
     19 N2         -1.6010    4.0860    0.7670 n         1 MOL     -0.135111
     20 C7         -1.8170    5.2430   -0.0760 c3        1 MOL      0.025504
     21 C8         -2.7600    5.1530   -1.2320 c         1 MOL      0.507091
     22 O5         -2.9730    6.1070   -1.9360 o         1 MOL     -0.567623
     23 C9         -0.4960    5.8660   -0.5750 c3        1 MOL     -0.229652
     24 H8         -0.6920    3.6420    0.6630 hn        1 MOL      0.198186
     25 H9         -2.2770    6.0200    0.5400 h1        1 MOL      0.051734
     26 H10        -0.6690    6.8450   -1.0350 hc        1 MOL      0.070148
     27 H11         0.2740    5.9790    0.1900 hc        1 MOL      0.070148
     28 H12        -0.1130    5.2060   -1.3490 hc        1 MOL      0.070148
     29 N3         -3.3540    3.9860   -1.4700 n         1 MOL     -0.091064
     30 C10        -4.5600    3.8360   -2.2910 c3        1 MOL     -0.269786
     31 C11        -5.6840    3.0590   -1.5180 c         1 MOL      0.488025
     32 O6         -6.7560    2.8020   -2.0930 o         1 MOL     -0.551828
     33 C12        -4.1340    3.1250   -3.5650 c3        1 MOL      0.173291
     34 C13        -3.1800    1.9910   -3.3950 c         1 MOL      0.561768
     35 O7         -2.1750    1.8650   -4.1630 o         1 MOL     -0.681914
     36 O8         -3.5640    1.0090   -2.7010 o         1 MOL     -0.681914
     37 H13        -3.0430    3.1780   -0.9720 hn        1 MOL      0.060805
     38 H14        -4.9880    4.7410   -2.7140 h1        1 MOL      0.135525
     39 H15        -3.6770    3.8050   -4.2860 hc        1 MOL     -0.022070
     40 H16        -4.9830    2.7290   -4.1100 hc        1 MOL     -0.022070
     41 N4         -5.4990    2.9780   -0.1720 n         1 MOL     -0.087144
     42 C14        -6.5690    2.4310    0.7290 c3        1 MOL     -0.091302
     43 C15        -7.1530    1.0800    0.3260 c         1 MOL      0.478805
     44 O9         -8.2480    0.7100    0.7410 o         1 MOL     -0.624001
     45 H17        -4.5540    3.0770    0.1820 hn        1 MOL     -0.063607
     46 H18        -7.3370    3.2040    0.8080 h1        1 MOL      0.091180
     47 H19        -6.1140    2.2320    1.6990 h1        1 MOL      0.091180
     48 N5         -6.5660    0.2220   -0.4860 n         1 MOL     -0.037318
     49 C16        -7.1990   -0.9880   -1.0650 c3        1 MOL     -0.105830
     50 C17        -7.1830   -2.2540   -0.1560 c         1 MOL      0.436933
     51 O10        -7.4980   -3.3790   -0.5710 o         1 MOL     -0.568188
     52 C18        -6.4350   -1.2710   -2.4330 c3        1 MOL     -0.255842
     53 C19        -5.0700   -2.0190   -2.3380 c         1 MOL      0.664304
     54 N6         -4.6090   -2.7240   -3.3690 n         1 MOL     -0.777431
     55 O11        -4.3700   -1.8940   -1.3310 o         1 MOL     -0.598349
     56 H20        -5.5900    0.3810   -0.6950 hn        1 MOL      0.072751
     57 H21        -8.2520   -0.8770   -1.3340 h1        1 MOL      0.133403
     58 H22        -6.3930   -0.3000   -2.9400 hc        1 MOL      0.094544
     59 H23        -7.1110   -1.9660   -2.9090 hc        1 MOL      0.094544
     60 H24        -5.0480   -2.5940   -4.2710 hn        1 MOL      0.362959
     61 H25        -3.6570   -3.0640   -3.2650 hn        1 MOL      0.362959
     62 N7         -6.7180   -2.1310    1.0110 n         1 MOL     -0.191492
     63 C20        -6.4940   -3.2100    2.0290 c3        1 MOL     -0.268879
     64 C21        -5.1490   -4.0270    1.9200 c         1 MOL      0.631423
     65 O12        -5.0160   -5.0550    2.5270 o         1 MOL     -0.588279
     66 H26        -6.3260   -1.2140    1.1810 hn        1 MOL      0.280763
     67 H27        -7.2240   -4.0120    1.9860 h1        1 MOL      0.124389
     68 H28        -6.4660   -2.7740    3.0280 h1        1 MOL      0.124389
     69 N8         -4.1980   -3.6260    1.0640 n         1 MOL     -0.415940
     70 C22        -2.9360   -4.2970    0.6710 c3        1 MOL     -0.054227
     71 C23        -1.7730   -3.2700    0.7410 c         1 MOL      0.596999
     72 O13        -1.9630   -2.1070    0.3860 o         1 MOL     -0.503786
     73 C24        -3.0510   -4.9520   -0.7360 c3        1 MOL      0.680956
     74 C25        -1.8230   -5.6860   -1.0560 c3        1 MOL     -0.597350
     75 O14        -4.0900   -5.9130   -0.7640 oh        1 MOL     -0.607685
     76 H29        -4.3530   -2.7490    0.5960 hn        1 MOL      0.243906
     77 H30        -2.8430   -5.1110    1.3880 h1        1 MOL      0.081567
     78 H31        -3.2510   -4.2090   -1.5090 h1        1 MOL     -0.057953
     79 H32        -4.2300   -6.0140   -1.7070 ho        1 MOL      0.344666
     80 H33        -2.0360   -6.3090   -1.9210 hc        1 MOL      0.125986
     81 H34        -0.8780   -5.1830   -1.2640 hc        1 MOL      0.125986
     82 H35        -1.6320   -6.3800   -0.2340 hc        1 MOL      0.125986
     83 N9         -0.6260   -3.6810    1.2870 n         1 MOL     -0.759897
     84 C26         0.5940   -2.8410    1.5440 c3        1 MOL      0.415689
     85 C27         1.5380   -3.0770    0.3640 c         1 MOL      0.409801
     86 O15         1.9610   -4.1930    0.1100 o         1 MOL     -0.622562
     87 C28         1.2230   -3.0980    2.9180 c3        1 MOL      0.222752
     88 C29         0.0600   -3.3050    4.0070 c3        1 MOL      0.163506
     89 C30         2.1980   -1.9760    3.2530 c3        1 MOL     -0.421564
     90 C31         0.6600   -3.2870    5.4100 c3        1 MOL     -0.284409
     91 H36        -0.6190   -4.6980    1.3240 hn        1 MOL      0.313558
     92 H37         0.3210   -1.7900    1.5020 h1        1 MOL     -0.044648
     93 H38         1.7340   -4.0550    2.8270 hc        1 MOL     -0.059507
     94 H39        -0.3460   -4.2910    3.8260 hc        1 MOL     -0.019004
     95 H40        -0.6880   -2.5230    3.8920 hc        1 MOL     -0.019004
     96 H41         2.8390   -1.8780    2.3770 hc        1 MOL      0.072880
     97 H42         1.6900   -1.0450    3.5120 hc        1 MOL      0.072880
     98 H43         2.8050   -2.2780    4.1020 hc        1 MOL      0.072880
     99 H44         1.2110   -4.2180    5.5540 hc        1 MOL      0.058102
    100 H45         1.1300   -2.3380    5.6810 hc        1 MOL      0.058102
    101 H46        -0.1650   -3.3280    6.1260 hc        1 MOL      0.058102
    102 N10         1.8800   -2.0100   -0.3010 n         1 MOL      0.038452
    103 C32         2.9470   -1.9480   -1.3270 c3        1 MOL      0.118477
    104 C33         4.3050   -1.7160   -0.7060 c         1 MOL      0.318361
    105 O16         4.4700   -1.0930    0.3560 o         1 MOL     -0.346942
    106 C34         2.7850   -0.8660   -2.3790 c3        1 MOL     -0.186326
    107 C35         1.4220   -1.0360   -3.0400 c         1 MOL      0.750161
    108 O17         0.3750   -0.5390   -2.5810 o         1 MOL     -0.712524
    109 O18         1.3750   -1.9430   -3.9250 o         1 MOL     -0.712524
    110 H47         1.5110   -1.1070   -0.0460 hn        1 MOL     -0.007831
    111 H48         2.9330   -2.9130   -1.8180 h1        1 MOL      0.055630
    112 H49         3.5810   -1.0300   -3.0980 hc        1 MOL      0.015257
    113 H50         2.8690    0.1510   -1.9760 hc        1 MOL      0.015257
    114 N11         5.4080   -1.9830   -1.4140 n         1 MOL     -0.456342
    115 C36         6.7550   -1.5460   -0.9200 c3        1 MOL      0.161734
    116 C37         6.8880    0.0130   -0.6710 c         1 MOL      0.426041
    117 O19         7.3500    0.3080    0.4240 o         1 MOL     -0.466842
    118 C38         7.8210   -2.0580   -1.9120 c3        1 MOL     -0.102006
    119 C39         9.2190   -1.8110   -1.4250 ca        1 MOL      0.003285
    120 C40        10.1000   -0.8410   -1.9540 ca        1 MOL     -0.141602
    121 C41         9.5800   -2.3440   -0.1400 ca        1 MOL     -0.141602
    122 C42        11.2890   -0.4550   -1.2330 ca        1 MOL     -0.103223
    123 C43        10.7500   -2.0160    0.5830 ca        1 MOL     -0.103223
    124 C44        11.5950   -1.0520    0.0350 ca        1 MOL     -0.149771
    125 H51         5.4090   -2.6810   -2.1560 hn        1 MOL      0.281816
    126 H52         6.8200   -2.0430    0.0470 h1        1 MOL      0.083406
    127 H53         7.7070   -1.5740   -2.8890 hc        1 MOL      0.053125
    128 H54         7.7380   -3.1330   -2.0720 hc        1 MOL      0.053125
    129 H55        10.0060   -0.4460   -2.9570 ha        1 MOL      0.104114
    130 H56         8.9310   -3.0940    0.2880 ha        1 MOL      0.104114
    131 H57        11.9320    0.3390   -1.5820 ha        1 MOL      0.115727
    132 H58        10.8790   -2.5330    1.5220 ha        1 MOL      0.115727
    133 H59        12.3990   -0.6940    0.6580 ha        1 MOL      0.118610
    134 N12         6.4280    0.8950   -1.5230 n         1 MOL     -0.063825
    135 C45         6.4870    2.3450   -1.2260 c3        1 MOL     -0.025098
    136 C46         5.5940    2.8040   -0.0830 c         1 MOL      0.327579
    137 O20         5.6760    3.8560    0.5300 o         1 MOL     -0.516318
    138 C47         6.1770    3.0170   -2.5620 c3        1 MOL     -0.101853
    139 C48         5.3450    2.0130   -3.3250 c3        1 MOL      0.030982
    140 C49         6.1290    0.7390   -2.9520 c3        1 MOL     -0.125119
    141 H60         7.5220    2.4850   -0.9430 h1        1 MOL      0.069237
    142 H61         5.7310    4.0020   -2.5320 hc        1 MOL      0.053906
    143 H62         7.0800    3.0550   -3.1620 hc        1 MOL      0.053906
    144 H63         4.3730    1.9090   -2.8330 hc        1 MOL      0.041992
    145 H64         5.1980    2.2740   -4.3780 hc        1 MOL      0.041992
    146 H65         5.4540   -0.1140   -3.0080 h1        1 MOL      0.058007
    147 H66         6.9450    0.5650   -3.6530 h1        1 MOL      0.058007
    148 N13         4.5860    1.9880    0.2990 n         1 MOL      0.027926
    149 C50         3.7700    2.1510    1.5890 c3        1 MOL     -0.196528
    150 C51         4.5260    1.5310    2.7790 c         1 MOL      0.499461
    151 O21         4.4530    1.9960    3.9020 o         1 MOL     -0.572559
    152 C52         2.4140    1.4470    1.4770 c3        1 MOL      0.066954
    153 C53         1.5210    2.3040    0.4090 c3        1 MOL     -0.154890
    154 C54         0.4640    1.4240   -0.2030 c         1 MOL      0.685728
    155 O22        -0.2040    1.8230   -1.2040 o         1 MOL     -0.697394
    156 O23         0.1830    0.3450    0.3130 o         1 MOL     -0.697394
    157 H67         4.4770    1.1390   -0.2360 hn        1 MOL      0.092556
    158 H68         3.6240    3.1930    1.8810 h1        1 MOL      0.125963
    159 H69         1.9810    1.5030    2.4750 hc        1 MOL      0.060680
    160 H70         2.5990    0.3880    1.2800 hc        1 MOL      0.060680
    161 H71         2.1700    2.6160   -0.4090 hc        1 MOL      0.032911
    162 H72         1.1380    3.1990    0.8980 hc        1 MOL      0.032911
    163 N14         5.2660    0.4750    2.5010 n         1 MOL      0.002238
    164 C55         6.1460   -0.0420    3.5560 c3        1 MOL     -0.384796
    165 H73         5.7180   -0.9540    3.9710 h1        1 MOL      0.120087
    166 H74         7.1270   -0.2610    3.1370 h1        1 MOL      0.120087
    167 H75         6.2450    0.7040    4.3450 h1        1 MOL      0.120087
    168 H76         5.5530    0.2490    1.5650 hn        1 MOL      0.014054
    169 Ca1        -1.8580   -0.2780   -1.3000 Ca        1 MOL      1.747856
    170 O24        -1.4960   -2.6640   -2.4920 oh        1 MOL     -1.031706
    171 H77        -1.8000   -3.2820   -3.1670 ho        1 MOL      0.444406
    172 H78        -0.6790   -2.3180   -2.8500 ho        1 MOL      0.444406
@<TRIPOS>BOND
     1    1    2 1   
     2    1    4 1   
     3    1    5 1   
     4    1    6 1   
     5    2    3 2   
     6    2    7 1   
     7    7    8 1   
     8    7   15 1   
     9    8    9 1   
    10    8   11 1   
    11    8   16 1   
    12    9   10 2   
    13    9   19 1   
    14   11   12 1   
    15   11   17 1   
    16   11   18 1   
    17   12   13 1   
    18   12   14 1   
    19   19   20 1   
    20   19   24 1   
    21   20   21 1   
    22   20   23 1   
    23   20   25 1   
    24   21   22 2   
    25   21   29 1   
    26   23   26 1   
    27   23   27 1   
    28   23   28 1   
    29   29   30 1   
    30   29   37 1   
    31   30   31 1   
    32   30   33 1   
    33   30   38 1   
    34   31   32 2   
    35   31   41 1   
    36   33   34 1   
    37   33   39 1   
    38   33   40 1   
    39   34   35 1   
    40   34   36 1   
    41   41   42 1   
    42   41   45 1   
    43   42   43 1   
    44   42   46 1   
    45   42   47 1   
    46   43   44 2   
    47   43   48 1   
    48   48   49 1   
    49   48   56 1   
    50   49   50 1   
    51   49   52 1   
    52   49   57 1   
    53   50   51 2   
    54   50   62 1   
    55   52   53 1   
    56   52   58 1   
    57   52   59 1   
    58   53   54 1   
    59   53   55 2   
    60   54   60 1   
    61   54   61 1   
    62   62   63 1   
    63   62   66 1   
    64   63   64 1   
    65   63   67 1   
    66   63   68 1   
    67   64   65 2   
    68   64   69 1   
    69   69   70 1   
    70   69   76 1   
    71   70   71 1   
    72   70   73 1   
    73   70   77 1   
    74   71   72 2   
    75   71   83 1   
    76   73   74 1   
    77   73   75 1   
    78   73   78 1   
    79   74   80 1   
    80   74   81 1   
    81   74   82 1   
    82   75   79 1   
    83   83   84 1   
    84   83   91 1   
    85   84   85 1   
    86   84   87 1   
    87   84   92 1   
    88   85   86 2   
    89   85  102 1   
    90   87   88 1   
    91   87   89 1   
    92   87   93 1   
    93   88   90 1   
    94   88   94 1   
    95   88   95 1   
    96   89   96 1   
    97   89   97 1   
    98   89   98 1   
    99   90   99 1   
   100   90  100 1   
   101   90  101 1   
   102  102  103 1   
   103  102  110 1   
   104  103  104 1   
   105  103  106 1   
   106  103  111 1   
   107  104  105 2   
   108  104  114 1   
   109  106  107 1   
   110  106  112 1   
   111  106  113 1   
   112  107  108 1   
   113  107  109 1   
   114  114  115 1   
   115  114  125 1   
   116  115  116 1   
   117  115  118 1   
   118  115  126 1   
   119  116  117 2   
   120  116  134 1   
   121  118  119 1   
   122  118  127 1   
   123  118  128 1   
   124  119  120 ar  
   125  119  121 ar  
   126  120  122 ar  
   127  120  129 1   
   128  121  123 ar  
   129  121  130 1   
   130  122  124 ar  
   131  122  131 1   
   132  123  124 ar  
   133  123  132 1   
   134  124  133 1   
   135  134  135 1   
   136  134  140 1   
   137  135  136 1   
   138  135  138 1   
   139  135  141 1   
   140  136  137 2   
   141  136  148 1   
   142  138  139 1   
   143  138  142 1   
   144  138  143 1   
   145  139  140 1   
   146  139  144 1   
   147  139  145 1   
   148  140  146 1   
   149  140  147 1   
   150  148  149 1   
   151  148  157 1   
   152  149  150 1   
   153  149  152 1   
   154  149  158 1   
   155  150  151 2   
   156  150  163 1   
   157  152  153 1   
   158  152  159 1   
   159  152  160 1   
   160  153  154 1   
   161  153  161 1   
   162  153  162 1   
   163  154  155 1   
   164  154  156 1   
   165  163  164 1   
   166  163  168 1   
   167  164  165 1   
   168  164  166 1   
   169  164  167 1   
   170  170  171 1   
   171  170  172 1   
@<TRIPOS>SUBSTRUCTURE
     1 MOL         1 TEMP              0 ****  ****    0 ROOT
