@<TRIPOS>MOLECULE
MOL
  179   176     1     0     0
SMALL
resp


@<TRIPOS>ATOM
      1 C1          2.2370    1.8850    5.8790 c3        1 MOL     -0.347438
      2 C2          1.7450    1.7020    4.4470 c         1 MOL      0.726603
      3 O1          2.6380    1.6640    3.6430 o         1 MOL     -0.548329
      4 H1          2.5410    2.9220    6.0280 hc        1 MOL      0.088848
      5 H2          1.4340    1.6390    6.5740 hc        1 MOL      0.088848
      6 H3          3.0880    1.2290    6.0580 hc        1 MOL      0.088848
      7 N1          0.3960    1.5880    4.1150 n         1 MOL     -0.572502
      8 C3         -0.1280    1.7080    2.7320 c3        1 MOL      0.024263
      9 C4         -0.2220    3.1920    2.4490 c         1 MOL      0.432190
     10 O2         -0.9740    3.9650    3.0330 o         1 MOL     -0.552024
     11 C5         -1.5620    1.0120    2.7540 c3        1 MOL     -0.281285
     12 C6         -2.5200    1.2400    1.5640 c         1 MOL      0.920684
     13 O3         -2.0930    1.6030    0.4620 o         1 MOL     -0.804784
     14 O4         -3.7080    0.9800    1.6650 o         1 MOL     -0.804784
     15 H4         -0.3000    1.6980    4.8450 hn        1 MOL      0.326383
     16 H5          0.5030    1.3170    1.9340 h1        1 MOL      0.127655
     17 H6         -2.0510    1.2040    3.7060 hc        1 MOL      0.083529
     18 H7         -1.4290   -0.0620    2.9090 hc        1 MOL      0.083529
     19 N2          0.3980    3.5350    1.3450 n         1 MOL     -0.159112
     20 C7          0.6850    4.9270    0.9140 c3        1 MOL     -0.123153
     21 C8         -0.3910    5.5620    0.0890 c         1 MOL      0.496210
     22 O5         -0.3220    6.7920   -0.0960 o         1 MOL     -0.594806
     23 C9          2.0330    4.8280    0.1900 c3        1 MOL     -0.037031
     24 C10         2.6830    6.1770   -0.1290 c3        1 MOL     -0.081604
     25 C11         4.0960    6.0170   -0.6460 c3        1 MOL      0.011861
     26 C12         4.7820    7.3770   -0.7840 c3        1 MOL     -0.105427
     27 N3          3.9950    8.3260   -1.5490 n4        1 MOL     -0.295985
     28 H8          0.8230    2.7830    0.8200 hn        1 MOL      0.104213
     29 H9          0.7560    5.5710    1.7810 h1        1 MOL      0.114026
     30 H10         1.8270    4.3580   -0.7700 hc        1 MOL      0.092645
     31 H11         2.7400    4.2920    0.8220 hc        1 MOL      0.092645
     32 H12         2.7790    6.7730    0.7840 hc        1 MOL      0.043389
     33 H13         2.1490    6.7960   -0.8540 hc        1 MOL      0.043389
     34 H14         4.1200    5.5040   -1.6040 hc        1 MOL      0.037505
     35 H15         4.6020    5.3520    0.0630 hc        1 MOL      0.037505
     36 H16         5.6990    7.1950   -1.3460 hx        1 MOL      0.117418
     37 H17         4.9640    7.7580    0.2230 hx        1 MOL      0.117418
     38 H18         4.6280    9.0870   -1.7320 hn        1 MOL      0.318160
     39 H19         3.7270    7.9160   -2.4240 hn        1 MOL      0.318160
     40 H20         3.1530    8.5980   -1.0530 hn        1 MOL      0.318160
     41 N4         -1.2450    4.7640   -0.5660 n         1 MOL     -0.201657
     42 C13        -2.4820    5.1720   -1.3000 c3        1 MOL     -0.031321
     43 C14        -3.8870    4.8750   -0.6510 c         1 MOL      0.428154
     44 O6         -4.9050    5.2480   -1.2430 o         1 MOL     -0.526895
     45 C15        -2.4380    4.6890   -2.6980 c3        1 MOL     -0.293848
     46 C16        -2.0480    3.1930   -2.8120 c         1 MOL      0.778416
     47 O7         -0.8910    2.8310   -3.0030 o         1 MOL     -0.722208
     48 O8         -2.8960    2.2990   -2.6440 o         1 MOL     -0.722208
     49 H21        -1.1420    3.7580   -0.4810 hn        1 MOL      0.143035
     50 H22        -2.4550    6.2620   -1.3090 h1        1 MOL      0.122535
     51 H23        -1.7500    5.2850   -3.2920 hc        1 MOL      0.079658
     52 H24        -3.3860    4.8150   -3.2250 hc        1 MOL      0.079658
     53 N5         -3.8790    4.2790    0.4890 n         1 MOL     -0.236357
     54 C17        -4.9990    3.9580    1.2870 c3        1 MOL     -0.162561
     55 C18        -5.8960    2.8720    0.7130 c         1 MOL      0.563992
     56 O9         -7.0350    2.6940    1.2080 o         1 MOL     -0.606050
     57 H25        -3.0290    3.7990    0.7470 hn        1 MOL      0.240272
     58 H26        -5.5910    4.8220    1.5820 h1        1 MOL      0.108133
     59 H27        -4.4990    3.5340    2.1500 h1        1 MOL      0.108133
     60 N6         -5.5260    2.1870   -0.3730 n         1 MOL     -0.219222
     61 C19        -6.4720    1.2540   -1.0550 c3        1 MOL     -0.156879
     62 C20        -6.7840   -0.0630   -0.4260 c         1 MOL      0.380822
     63 O10        -7.4970   -0.8650   -0.9940 o         1 MOL     -0.501521
     64 C21        -6.0410    0.9870   -2.5020 c3        1 MOL     -0.117149
     65 C22        -4.9690   -0.0770   -2.5840 c         1 MOL      0.625266
     66 N7         -5.1830   -1.0410   -3.4970 n         1 MOL     -0.769188
     67 O11        -4.0140   -0.1410   -1.8060 o         1 MOL     -0.622138
     68 H28        -4.6110    2.3120   -0.7770 hn        1 MOL      0.232897
     69 H29        -7.3960    1.8420   -1.0720 h1        1 MOL      0.152873
     70 H30        -5.6970    1.8570   -3.0640 hc        1 MOL      0.077063
     71 H31        -6.9180    0.6200   -3.0210 hc        1 MOL      0.077063
     72 H32        -6.0730   -1.0580   -3.9850 hn        1 MOL      0.361044
     73 H33        -4.5260   -1.7920   -3.6110 hn        1 MOL      0.361044
     74 N8         -6.2600   -0.2780    0.7590 n         1 MOL     -0.072238
     75 C23        -6.4770   -1.4570    1.6400 c3        1 MOL     -0.434219
     76 C24        -5.3880   -2.4390    1.6370 c         1 MOL      0.746946
     77 O12        -5.5230   -3.4860    2.2250 o         1 MOL     -0.583662
     78 H34        -5.6690    0.4030    1.2180 hn        1 MOL      0.281047
     79 H35        -7.3660   -1.9670    1.2770 h1        1 MOL      0.164198
     80 H36        -6.6490   -1.1580    2.6770 h1        1 MOL      0.164198
     81 N9         -4.2510   -2.1900    0.9710 n         1 MOL     -0.643633
     82 C25        -3.0770   -3.0860    0.8500 c3        1 MOL      0.453335
     83 C26        -1.6970   -2.3510    0.9060 c         1 MOL      0.171951
     84 O13        -1.4500   -1.3350    0.2920 o         1 MOL     -0.574820
     85 C27        -3.0820   -3.8980   -0.4370 c3        1 MOL      0.074961
     86 C28        -4.3130   -4.7260   -0.5340 ca        1 MOL     -0.040968
     87 C29        -5.5250   -4.3800   -1.1620 ca        1 MOL     -0.125213
     88 C30        -4.2120   -5.9970    0.0160 ca        1 MOL     -0.125213
     89 C31        -6.6260   -5.2430   -1.1850 ca        1 MOL     -0.307554
     90 C32        -5.3140   -6.8640   -0.0950 ca        1 MOL     -0.307554
     91 C33        -6.5590   -6.5070   -0.6220 ca        1 MOL      0.437098
     92 O14        -7.5860   -7.3930   -0.5850 oh        1 MOL     -0.494841
     93 H37        -4.2220   -1.2920    0.5230 hn        1 MOL      0.401918
     94 H38        -3.0820   -3.7890    1.6800 h1        1 MOL     -0.017396
     95 H39        -2.2140   -4.5410   -0.3130 hc        1 MOL     -0.042528
     96 H40        -2.9930   -3.2900   -1.3370 hc        1 MOL     -0.042528
     97 H41        -5.7790   -3.3640   -1.4360 ha        1 MOL      0.127723
     98 H42        -3.2940   -6.4070    0.3940 ha        1 MOL      0.127723
     99 H43        -7.5650   -4.8520   -1.5490 ha        1 MOL      0.146296
    100 H44        -5.2000   -7.8760    0.2600 ha        1 MOL      0.146296
    101 H45        -7.3370   -8.2500   -0.2170 ho        1 MOL      0.350772
    102 N10        -0.7430   -3.0150    1.5780 n         1 MOL     -0.221586
    103 C34         0.6530   -2.6320    1.7290 c3        1 MOL     -0.085926
    104 C35         1.4430   -3.5530    0.7420 c         1 MOL      0.529183
    105 O15         1.4770   -4.7810    0.8910 o         1 MOL     -0.538469
    106 C36         1.1280   -2.7880    3.2000 c3        1 MOL      0.112027
    107 C37         0.2940   -2.2280    4.3820 c3        1 MOL      0.266933
    108 C38         2.5700   -2.2610    3.4000 c3        1 MOL     -0.236077
    109 C39         0.8650   -2.4740    5.7950 c3        1 MOL     -0.241683
    110 H46        -1.0010   -3.8670    2.0680 hn        1 MOL      0.240582
    111 H47         0.7520   -1.5990    1.3920 h1        1 MOL      0.150902
    112 H48         1.1400   -3.8590    3.3810 hc        1 MOL     -0.021268
    113 H49        -0.7310   -2.5640    4.3210 hc        1 MOL     -0.078787
    114 H50         0.1890   -1.1450    4.3000 hc        1 MOL     -0.078787
    115 H51         3.0850   -2.7990    4.1970 hc        1 MOL      0.046359
    116 H52         3.0920   -2.4830    2.4740 hc        1 MOL      0.046359
    117 H53         2.4500   -1.1760    3.5100 hc        1 MOL      0.046359
    118 H54         1.8960   -2.1560    5.9230 hc        1 MOL      0.053408
    119 H55         0.2930   -1.9350    6.5660 hc        1 MOL      0.053408
    120 H56         0.8190   -3.5310    6.0370 hc        1 MOL      0.053408
    121 N11         2.0640   -2.9720   -0.3530 n         1 MOL     -0.221435
    122 C40         3.0430   -3.6200   -1.2160 c3        1 MOL     -0.137582
    123 C41         4.4750   -3.7120   -0.5860 c         1 MOL      0.502698
    124 O16         4.8850   -3.1050    0.4410 o         1 MOL     -0.389096
    125 C42         3.2340   -2.8390   -2.5870 c3        1 MOL      0.288216
    126 O17         2.0870   -2.0660   -3.0660 oh        1 MOL     -0.618718
    127 H57         2.0820   -1.9670   -0.3770 hn        1 MOL      0.197537
    128 H58         2.5460   -4.5660   -1.3990 h1        1 MOL      0.110769
    129 H59         3.5290   -3.5100   -3.3890 h1        1 MOL      0.011892
    130 H60         4.0200   -2.0940   -2.5440 h1        1 MOL      0.011892
    131 H61         1.7870   -1.3610   -2.5020 ho        1 MOL      0.336723
    132 N12         5.4560   -4.3880   -1.2480 n         1 MOL     -0.582610
    133 C43         6.8270   -4.5390   -0.6900 c3        1 MOL      0.356847
    134 C44         7.7230   -3.2400   -0.8420 c         1 MOL      0.420743
    135 O18         8.2870   -2.8260    0.1520 o         1 MOL     -0.474630
    136 C45         7.5050   -5.7740   -1.4010 c3        1 MOL     -0.355410
    137 H62         5.2080   -5.0820   -1.9380 hn        1 MOL      0.286005
    138 H63         6.7700   -4.7900    0.3680 h1        1 MOL      0.018767
    139 H64         8.4970   -5.8580   -0.9700 hc        1 MOL      0.097061
    140 H65         6.9680   -6.7190   -1.2760 hc        1 MOL      0.097061
    141 H66         7.6270   -5.6170   -2.4730 hc        1 MOL      0.097061
    142 N13         7.7280   -2.6910   -2.0950 n         1 MOL     -0.485128
    143 C46         8.2240   -1.3620   -2.3850 c3        1 MOL      0.261754
    144 C47         7.5820   -0.2150   -1.5810 c         1 MOL      0.266700
    145 O19         8.2070    0.8510   -1.3920 o         1 MOL     -0.494068
    146 C48         8.1450   -1.1600   -3.9260 c3        1 MOL     -0.325844
    147 H67         7.2210   -3.0900   -2.8620 hn        1 MOL      0.262213
    148 H68         9.2770   -1.2100   -2.1420 h1        1 MOL      0.064454
    149 H69         7.1320   -1.4130   -4.2430 hc        1 MOL      0.093426
    150 H70         8.4990   -0.1710   -4.2080 hc        1 MOL      0.093426
    151 H71         8.8650   -1.8620   -4.3380 hc        1 MOL      0.093426
    152 N14         6.3480   -0.4570   -1.0860 n         1 MOL     -0.012463
    153 C49         5.5580    0.5480   -0.3600 c3        1 MOL     -0.106848
    154 C50         5.8390    0.4390    1.1600 c         1 MOL      0.519215
    155 O20         5.9610    1.4630    1.8130 o         1 MOL     -0.530061
    156 C51         4.1800    0.1320   -0.7430 c3        1 MOL      0.143484
    157 C52         3.1150    1.2530   -0.5400 c3        1 MOL     -0.098617
    158 C53         1.6490    0.9210   -0.8870 c         1 MOL      0.661959
    159 O21         0.7730    1.7380   -0.5830 o         1 MOL     -0.693134
    160 O22         1.2800   -0.1650   -1.3840 o         1 MOL     -0.693134
    161 H72         5.8240   -1.2220   -1.4950 hn        1 MOL      0.058012
    162 H73         5.7680    1.5480   -0.7230 h1        1 MOL      0.076331
    163 H74         3.9230   -0.7890   -0.2070 hc        1 MOL     -0.035799
    164 H75         4.1900   -0.0920   -1.8150 hc        1 MOL     -0.035799
    165 H76         3.4250    2.0600   -1.2090 hc        1 MOL      0.026265
    166 H77         3.1310    1.6850    0.4590 hc        1 MOL      0.026265
    167 N15         6.1470   -0.7770    1.6870 n         1 MOL     -0.244175
    168 C54         6.8230   -0.9640    3.0470 c3        1 MOL     -0.280142
    169 H78         7.2110   -0.0060    3.3940 h1        1 MOL      0.127510
    170 H79         6.0970   -1.3430    3.7650 h1        1 MOL      0.127510
    171 H80         7.6450   -1.6740    2.9510 h1        1 MOL      0.127510
    172 H81         5.9070   -1.6540    1.2340 hn        1 MOL      0.175548
    173 Ca1        -1.2990    0.4630   -1.7290 Ca        1 MOL      1.746426
    174 O23        -1.5410    0.1030   -4.4800 oh        1 MOL     -0.773095
    175 H82        -0.9130    0.1650   -5.1920 ho        1 MOL      0.380266
    176 H83        -2.0140   -0.7120   -4.6370 ho        1 MOL      0.380266
    177 O24        -0.9050   -2.0790   -2.4530 oh        1 MOL     -0.773095
    178 H84        -1.5340   -2.7740   -2.2660 ho        1 MOL      0.380266
    179 H85        -0.3110   -2.4500   -3.1000 ho        1 MOL      0.380266
@<TRIPOS>BOND
     1    1    2 1   
     2    1    4 1   
     3    1    5 1   
     4    1    6 1   
     5    2    3 2   
     6    2    7 1   
     7    7    8 1   
     8    7   15 1   
     9    8    9 1   
    10    8   11 1   
    11    8   16 1   
    12    9   10 2   
    13    9   19 1   
    14   11   12 1   
    15   11   17 1   
    16   11   18 1   
    17   12   13 1   
    18   12   14 1   
    19   19   20 1   
    20   19   28 1   
    21   20   21 1   
    22   20   23 1   
    23   20   29 1   
    24   21   22 2   
    25   21   41 1   
    26   23   24 1   
    27   23   30 1   
    28   23   31 1   
    29   24   25 1   
    30   24   32 1   
    31   24   33 1   
    32   25   26 1   
    33   25   34 1   
    34   25   35 1   
    35   26   27 1   
    36   26   36 1   
    37   26   37 1   
    38   27   38 1   
    39   27   39 1   
    40   27   40 1   
    41   41   42 1   
    42   41   49 1   
    43   42   43 1   
    44   42   45 1   
    45   42   50 1   
    46   43   44 2   
    47   43   53 1   
    48   45   46 1   
    49   45   51 1   
    50   45   52 1   
    51   46   47 1   
    52   46   48 1   
    53   53   54 1   
    54   53   57 1   
    55   54   55 1   
    56   54   58 1   
    57   54   59 1   
    58   55   56 2   
    59   55   60 1   
    60   60   61 1   
    61   60   68 1   
    62   61   62 1   
    63   61   64 1   
    64   61   69 1   
    65   62   63 2   
    66   62   74 1   
    67   64   65 1   
    68   64   70 1   
    69   64   71 1   
    70   65   66 1   
    71   65   67 2   
    72   66   72 1   
    73   66   73 1   
    74   74   75 1   
    75   74   78 1   
    76   75   76 1   
    77   75   79 1   
    78   75   80 1   
    79   76   77 2   
    80   76   81 1   
    81   81   82 1   
    82   81   93 1   
    83   82   83 1   
    84   82   85 1   
    85   82   94 1   
    86   83   84 2   
    87   83  102 1   
    88   85   86 1   
    89   85   95 1   
    90   85   96 1   
    91   86   87 ar  
    92   86   88 ar  
    93   87   89 ar  
    94   87   97 1   
    95   88   90 ar  
    96   88   98 1   
    97   89   91 ar  
    98   89   99 1   
    99   90   91 ar  
   100   90  100 1   
   101   91   92 1   
   102   92  101 1   
   103  102  103 1   
   104  102  110 1   
   105  103  104 1   
   106  103  106 1   
   107  103  111 1   
   108  104  105 2   
   109  104  121 1   
   110  106  107 1   
   111  106  108 1   
   112  106  112 1   
   113  107  109 1   
   114  107  113 1   
   115  107  114 1   
   116  108  115 1   
   117  108  116 1   
   118  108  117 1   
   119  109  118 1   
   120  109  119 1   
   121  109  120 1   
   122  121  122 1   
   123  121  127 1   
   124  122  123 1   
   125  122  125 1   
   126  122  128 1   
   127  123  124 2   
   128  123  132 1   
   129  125  126 1   
   130  125  129 1   
   131  125  130 1   
   132  126  131 1   
   133  132  133 1   
   134  132  137 1   
   135  133  134 1   
   136  133  136 1   
   137  133  138 1   
   138  134  135 2   
   139  134  142 1   
   140  136  139 1   
   141  136  140 1   
   142  136  141 1   
   143  142  143 1   
   144  142  147 1   
   145  143  144 1   
   146  143  146 1   
   147  143  148 1   
   148  144  145 2   
   149  144  152 1   
   150  146  149 1   
   151  146  150 1   
   152  146  151 1   
   153  152  153 1   
   154  152  161 1   
   155  153  154 1   
   156  153  156 1   
   157  153  162 1   
   158  154  155 2   
   159  154  167 1   
   160  156  157 1   
   161  156  163 1   
   162  156  164 1   
   163  157  158 1   
   164  157  165 1   
   165  157  166 1   
   166  158  159 1   
   167  158  160 1   
   168  167  168 1   
   169  167  172 1   
   170  168  169 1   
   171  168  170 1   
   172  168  171 1   
   173  174  175 1   
   174  174  176 1   
   175  177  178 1   
   176  177  179 1   
@<TRIPOS>SUBSTRUCTURE
     1 MOL         1 TEMP              0 ****  ****    0 ROOT
