@<TRIPOS>MOLECULE
MOL
  186   183     1     0     0
SMALL
resp


@<TRIPOS>ATOM
      1 C1          0.9160   -1.7330    6.5260 c3        1 MOL     -0.329775
      2 C2          1.3990   -1.9190    5.0510 c         1 MOL      0.806439
      3 O1          0.5370   -2.2110    4.2180 o         1 MOL     -0.639995
      4 H1          1.4060   -0.8620    6.9620 hc        1 MOL      0.071573
      5 H2         -0.1640   -1.5870    6.5400 hc        1 MOL      0.071573
      6 H3          1.1710   -2.6190    7.1070 hc        1 MOL      0.071573
      7 N1          2.6260   -1.7040    4.7260 n         1 MOL     -0.738303
      8 C3          3.0540   -1.6440    3.3020 c3        1 MOL      0.294869
      9 C4          3.3860   -3.1240    2.8740 c         1 MOL      0.462122
     10 O2          4.3600   -3.7170    3.3810 o         1 MOL     -0.587015
     11 C5          4.3410   -0.8580    3.1610 c3        1 MOL      0.020157
     12 C6          4.6270   -0.6390    1.7370 c         1 MOL      0.699959
     13 O3          5.7220   -0.1230    1.4600 o         1 MOL     -0.716410
     14 O4          3.7770   -0.8560    0.8060 o         1 MOL     -0.716410
     15 H4          3.1580   -1.2560    5.4500 hn        1 MOL      0.339884
     16 H5          2.2900   -1.2710    2.6180 h1        1 MOL      0.001705
     17 H6          5.1550   -1.3030    3.7160 hc        1 MOL     -0.015530
     18 H7          4.1720    0.0740    3.7020 hc        1 MOL     -0.015530
     19 N2          2.5170   -3.6790    1.9760 n         1 MOL     -0.011167
     20 C7          2.5460   -5.0760    1.4960 c3        1 MOL     -0.170591
     21 C8          3.1690   -5.2290    0.0990 c         1 MOL      0.331842
     22 O5          3.4010   -6.3720   -0.3000 o         1 MOL     -0.566568
     23 C9          1.0910   -5.7900    1.5450 c3        1 MOL      0.150167
     24 C10         0.0210   -5.1480    0.6670 c3        1 MOL      0.269606
     25 C11         0.7290   -6.0080    2.9660 c3        1 MOL     -0.240990
     26 C12        -1.3130   -5.9340    0.5440 c3        1 MOL     -0.519660
     27 H8          1.6530   -3.1780    1.8420 hn        1 MOL      0.154371
     28 H9          3.1850   -5.6480    2.1710 h1        1 MOL      0.116149
     29 H10         1.0840   -6.8030    1.1290 hc        1 MOL     -0.024617
     30 H11         0.3950   -5.0270   -0.3500 hc        1 MOL      0.014334
     31 H12        -0.2380   -4.2130    1.1610 hc        1 MOL      0.014334
     32 H13         1.4720   -6.6860    3.3750 hc        1 MOL      0.035519
     33 H14         0.9530   -5.1760    3.6450 hc        1 MOL      0.035519
     34 H15        -0.2750   -6.4190    3.0740 hc        1 MOL      0.035519
     35 H16        -1.6060   -6.3660    1.4920 hc        1 MOL      0.125132
     36 H17        -2.1080   -5.2920    0.1270 hc        1 MOL      0.125132
     37 H18        -1.1690   -6.6890   -0.2320 hc        1 MOL      0.125132
     38 N3          3.5080   -4.1870   -0.7000 n         1 MOL     -0.045378
     39 C13         4.2920   -4.3370   -1.9430 c3        1 MOL      0.049019
     40 C14         5.6480   -3.6320   -1.8990 c         1 MOL      0.212362
     41 O6          6.4710   -3.6570   -2.8730 o         1 MOL     -0.485960
     42 C15         3.4070   -3.9610   -3.1430 c3        1 MOL     -0.211979
     43 C16         2.9360   -2.5100   -3.0430 c         1 MOL      0.862959
     44 O7          3.4310   -1.7500   -2.1280 o         1 MOL     -0.725232
     45 O8          2.1520   -2.0840   -3.9440 o         1 MOL     -0.725232
     46 H19         3.2980   -3.2610   -0.3400 hn        1 MOL     -0.018613
     47 H20         4.4380   -5.3960   -2.1670 h1        1 MOL      0.097262
     48 H21         2.5880   -4.6830   -3.1720 hc        1 MOL      0.051290
     49 H22         4.0710   -4.0620   -4.0040 hc        1 MOL      0.051290
     50 N4          6.0380   -2.9250   -0.8200 n         1 MOL      0.075786
     51 C17         7.4270   -2.3440   -0.5200 c3        1 MOL     -0.399307
     52 C18         7.7270   -1.1500   -1.4200 c         1 MOL      0.733695
     53 O9          8.6530   -1.1990   -2.2980 o         1 MOL     -0.619754
     54 H23         5.4510   -3.0710   -0.0090 hn        1 MOL      0.124716
     55 H24         8.1630   -3.1300   -0.6720 h1        1 MOL      0.125498
     56 H25         7.4550   -2.0120    0.5180 h1        1 MOL      0.125498
     57 N5          7.0900   -0.0320   -1.1910 n         1 MOL     -0.477524
     58 C19         7.2480    1.2800   -1.8490 c3        1 MOL      0.048428
     59 C20         7.2770    2.4130   -0.8000 c         1 MOL      0.429545
     60 O10         7.6050    3.5430   -1.1760 o         1 MOL     -0.576896
     61 C21         6.1570    1.3940   -3.0060 c3        1 MOL     -0.007266
     62 C22         4.6590    1.5660   -2.5550 c         1 MOL      0.698510
     63 O11         3.6980    1.2240   -3.3350 o         1 MOL     -0.757431
     64 O12         4.3210    1.8970   -1.3970 o         1 MOL     -0.757431
     65 H26         6.3460   -0.0260   -0.5120 hn        1 MOL      0.186544
     66 H27         8.2160    1.3420   -2.3470 h1        1 MOL      0.073360
     67 H28         6.2060    0.6150   -3.7660 hc        1 MOL      0.025622
     68 H29         6.3930    2.2860   -3.5870 hc        1 MOL      0.025622
     69 N6          6.9530    2.2280    0.4600 n         1 MOL     -0.231535
     70 C23         6.8830    3.2330    1.5380 c3        1 MOL     -0.133099
     71 C24         5.5070    3.9010    1.7330 c         1 MOL      0.542922
     72 O13         5.5940    4.9040    2.4850 o         1 MOL     -0.609771
     73 H30         6.7020    1.2920    0.7360 hn        1 MOL      0.235683
     74 H31         7.5610    4.0360    1.2350 h1        1 MOL      0.090961
     75 H32         7.2650    2.7360    2.4290 h1        1 MOL      0.090961
     76 N7          4.3880    3.5470    1.0610 n         1 MOL     -0.335384
     77 C25         3.0830    4.2060    1.1230 c3        1 MOL     -0.067302
     78 C26         1.9480    3.1880    1.2710 c         1 MOL      0.628775
     79 O14         2.1090    2.0260    0.9220 o         1 MOL     -0.637586
     80 C27         2.8780    5.1840   -0.0760 c3        1 MOL     -0.224152
     81 C28         4.0150    6.2570   -0.2490 c3        1 MOL     -0.011242
     82 C29         3.8170    7.2700   -1.3490 c         1 MOL      0.589135
     83 N8          4.8700    7.8850   -1.7720 n         1 MOL     -0.729129
     84 O15         2.6970    7.4620   -1.8470 o         1 MOL     -0.580402
     85 H33         4.5680    2.8490    0.3610 hn        1 MOL      0.306489
     86 H34         3.1250    4.8310    2.0100 h1        1 MOL      0.074994
     87 H35         1.8780    5.6320   -0.0460 hc        1 MOL      0.099160
     88 H36         2.9860    4.5900   -0.9810 hc        1 MOL      0.099160
     89 H37         4.9600    5.7550   -0.4430 hc        1 MOL      0.043684
     90 H38         4.0880    6.9080    0.6240 hc        1 MOL      0.043684
     91 H39         5.7930    7.8240   -1.3570 hn        1 MOL      0.334236
     92 H40         4.7060    8.5650   -2.4980 hn        1 MOL      0.334236
     93 N9          0.8490    3.5140    2.0240 n         1 MOL     -0.462031
     94 C30        -0.3850    2.7590    2.1160 c3        1 MOL      0.064917
     95 C31        -1.3740    3.2320    0.9980 c         1 MOL      0.408001
     96 O16        -2.0380    4.2770    1.0950 o         1 MOL     -0.558564
     97 C32        -1.0600    2.9760    3.4820 c3        1 MOL      0.305915
     98 C33        -2.2580    2.0190    3.5690 c3        1 MOL     -0.348464
     99 C34        -0.1070    2.7880    4.6850 c3        1 MOL     -0.348464
    100 H41         0.9360    4.3580    2.5780 hn        1 MOL      0.271281
    101 H42        -0.2050    1.6980    1.9600 h1        1 MOL      0.120602
    102 H43        -1.3570    4.0220    3.3640 hc        1 MOL     -0.045202
    103 H44        -1.8710    1.0020    3.4940 hc        1 MOL      0.072239
    104 H45        -2.8160    2.1050    4.4980 hc        1 MOL      0.072239
    105 H46        -2.8760    2.3510    2.7360 hc        1 MOL      0.072239
    106 H47        -0.6240    3.0480    5.6110 hc        1 MOL      0.072239
    107 H48         0.3100    1.7970    4.8100 hc        1 MOL      0.072239
    108 H49         0.7150    3.4960    4.5420 hc        1 MOL      0.072239
    109 N10        -1.5820    2.3590   -0.0230 n         1 MOL     -0.198903
    110 C35        -2.7370    2.4400   -0.9730 c3        1 MOL      0.050675
    111 C36        -4.0250    1.8950   -0.2710 c         1 MOL      0.603256
    112 O17        -3.9710    1.1270    0.6840 o         1 MOL     -0.473839
    113 C37        -2.2900    1.6510   -2.2280 c3        1 MOL     -0.480798
    114 C38        -3.4090    1.7520   -3.2730 c         1 MOL      0.709692
    115 N11        -3.4660    2.7760   -4.0610 n         1 MOL     -0.772971
    116 O18        -4.3230    0.9240   -3.3670 o         1 MOL     -0.549689
    117 H50        -0.9860    1.5400    0.0290 hn        1 MOL      0.210484
    118 H51        -2.8180    3.5000   -1.1900 h1        1 MOL      0.043025
    119 H52        -2.1980    0.6200   -1.9000 hc        1 MOL      0.188510
    120 H53        -1.4120    2.1160   -2.6730 hc        1 MOL      0.188510
    121 H54        -2.7180    3.4340   -3.8900 hn        1 MOL      0.361055
    122 H55        -4.3250    2.9380   -4.5610 hn        1 MOL      0.361055
    123 N12        -5.1940    2.3790   -0.6930 n         1 MOL     -0.645790
    124 C39        -6.4880    1.9450   -0.2270 c3        1 MOL      0.388011
    125 C40        -6.7230    0.4690   -0.3700 c         1 MOL      0.554851
    126 O19        -7.0140   -0.1580    0.6310 o         1 MOL     -0.512185
    127 C41        -7.6510    2.7130   -0.9120 c3        1 MOL     -0.215004
    128 C42        -8.9550    2.3040   -0.3000 ca        1 MOL     -0.051152
    129 C43        -9.4590    2.9490    0.8330 ca        1 MOL     -0.115249
    130 C44        -9.7830    1.4150   -0.9910 ca        1 MOL     -0.115249
    131 C45       -10.7590    2.7880    1.2930 ca        1 MOL     -0.243897
    132 C46       -11.1500    1.2760   -0.5830 ca        1 MOL     -0.243897
    133 C47       -11.6600    1.9900    0.5560 ca        1 MOL      0.272968
    134 O20       -12.9350    1.8520    0.9480 oh        1 MOL     -0.464758
    135 H56        -5.1600    3.0360   -1.4570 hn        1 MOL      0.270918
    136 H57        -6.5230    2.1710    0.8400 h1        1 MOL      0.020153
    137 H58        -7.5620    2.5510   -1.9830 hc        1 MOL      0.076331
    138 H59        -7.4960    3.7860   -0.7860 hc        1 MOL      0.076331
    139 H60        -8.8620    3.6980    1.3320 ha        1 MOL      0.108174
    140 H61        -9.4200    1.0600   -1.9380 ha        1 MOL      0.108174
    141 H62       -11.1180    3.3150    2.1590 ha        1 MOL      0.128971
    142 H63       -11.8420    0.6620   -1.1510 ha        1 MOL      0.128971
    143 H64       -13.3780    1.3190    0.2840 ho        1 MOL      0.346473
    144 N13        -6.3850   -0.2030   -1.5020 n         1 MOL     -0.431959
    145 C48        -6.2740   -1.6570   -1.6480 c3        1 MOL     -0.029495
    146 C49        -5.6180   -2.3900   -0.4230 c         1 MOL      0.302986
    147 O21        -6.1510   -3.4740   -0.0760 o         1 MOL     -0.502996
    148 C50        -5.5750   -2.0140   -2.9610 c3        1 MOL      0.206225
    149 C51        -5.6760   -3.4960   -3.1810 c3        1 MOL     -0.504130
    150 C52        -5.2660   -3.9010   -4.5610 c         1 MOL      0.791203
    151 O22        -6.1050   -4.0650   -5.5210 o         1 MOL     -0.735028
    152 O23        -4.0900   -4.0320   -4.9410 o         1 MOL     -0.735028
    153 H65        -6.0890    0.3280   -2.3080 hn        1 MOL      0.205585
    154 H66        -7.2920   -2.0380   -1.7850 h1        1 MOL      0.096227
    155 H67        -4.5570   -1.6150   -2.9270 hc        1 MOL      0.009125
    156 H68        -6.0870   -1.6160   -3.8340 hc        1 MOL      0.009125
    157 H69        -6.6890   -3.8690   -3.0870 hc        1 MOL      0.097836
    158 H70        -5.0320   -4.1150   -2.5570 hc        1 MOL      0.097836
    159 N14        -4.5900   -1.8110    0.2070 n         1 MOL     -0.060807
    160 C53        -3.8200   -2.2380    1.4100 c3        1 MOL     -0.190079
    161 C54        -4.4290   -1.7970    2.7870 c         1 MOL      0.560546
    162 O24        -4.2050   -2.4470    3.7680 o         1 MOL     -0.589744
    163 C55        -2.3790   -1.6210    1.3410 c3        1 MOL      0.019047
    164 C56        -1.6520   -1.8930    0.0010 c3        1 MOL     -0.269058
    165 C57        -0.2360   -1.2720   -0.0830 c         1 MOL      0.873889
    166 O25         0.7360   -1.9340   -0.5220 o         1 MOL     -0.839557
    167 O26        -0.0320   -0.0500    0.2010 o         1 MOL     -0.839557
    168 H71        -4.2750   -0.9320   -0.1640 hn        1 MOL      0.157104
    169 H72        -3.8000   -3.3240    1.4280 h1        1 MOL      0.104201
    170 H73        -1.8060   -1.9900    2.1860 hc        1 MOL      0.063844
    171 H74        -2.3760   -0.5490    1.5540 hc        1 MOL      0.063844
    172 H75        -2.1600   -1.4230   -0.8370 hc        1 MOL      0.089414
    173 H76        -1.6480   -2.9360   -0.3360 hc        1 MOL      0.089414
    174 N15        -5.2130   -0.7430    2.7770 n         1 MOL     -0.130964
    175 C58        -6.0050   -0.2960    3.9930 c3        1 MOL     -0.147051
    176 H77        -5.4710    0.5110    4.4950 h1        1 MOL      0.066621
    177 H78        -6.9860    0.0590    3.6780 h1        1 MOL      0.066621
    178 H79        -6.1240   -1.1340    4.6780 h1        1 MOL      0.066621
    179 H80        -5.3980   -0.3500    1.8620 hn        1 MOL      0.091196
    180 Ca1         2.3200    0.1660   -0.9790 Ca        1 MOL      1.779968
    181 O27         0.5050    0.2030   -3.0910 oh        1 MOL     -0.875792
    182 H81         0.9680   -0.4920   -3.5590 ho        1 MOL      0.417597
    183 H82         0.0890    0.7200   -3.7770 ho        1 MOL      0.417597
    184 O28         1.7980    2.8480   -2.1420 oh        1 MOL     -0.875792
    185 H83         1.8790    2.7010   -3.0880 ho        1 MOL      0.417597
    186 H84         2.7020    2.8640   -1.8260 ho        1 MOL      0.417597
@<TRIPOS>BOND
     1    1    2 1   
     2    1    4 1   
     3    1    5 1   
     4    1    6 1   
     5    2    3 2   
     6    2    7 1   
     7    7    8 1   
     8    7   15 1   
     9    8    9 1   
    10    8   11 1   
    11    8   16 1   
    12    9   10 2   
    13    9   19 1   
    14   11   12 1   
    15   11   17 1   
    16   11   18 1   
    17   12   13 1   
    18   12   14 1   
    19   19   20 1   
    20   19   27 1   
    21   20   21 1   
    22   20   23 1   
    23   20   28 1   
    24   21   22 2   
    25   21   38 1   
    26   23   24 1   
    27   23   25 1   
    28   23   29 1   
    29   24   26 1   
    30   24   30 1   
    31   24   31 1   
    32   25   32 1   
    33   25   33 1   
    34   25   34 1   
    35   26   35 1   
    36   26   36 1   
    37   26   37 1   
    38   38   39 1   
    39   38   46 1   
    40   39   40 1   
    41   39   42 1   
    42   39   47 1   
    43   40   41 2   
    44   40   50 1   
    45   42   43 1   
    46   42   48 1   
    47   42   49 1   
    48   43   44 1   
    49   43   45 1   
    50   50   51 1   
    51   50   54 1   
    52   51   52 1   
    53   51   55 1   
    54   51   56 1   
    55   52   53 2   
    56   52   57 1   
    57   57   58 1   
    58   57   65 1   
    59   58   59 1   
    60   58   61 1   
    61   58   66 1   
    62   59   60 2   
    63   59   69 1   
    64   61   62 1   
    65   61   67 1   
    66   61   68 1   
    67   62   63 1   
    68   62   64 1   
    69   69   70 1   
    70   69   73 1   
    71   70   71 1   
    72   70   74 1   
    73   70   75 1   
    74   71   72 2   
    75   71   76 1   
    76   76   77 1   
    77   76   85 1   
    78   77   78 1   
    79   77   80 1   
    80   77   86 1   
    81   78   79 2   
    82   78   93 1   
    83   80   81 1   
    84   80   87 1   
    85   80   88 1   
    86   81   82 1   
    87   81   89 1   
    88   81   90 1   
    89   82   83 1   
    90   82   84 2   
    91   83   91 1   
    92   83   92 1   
    93   93   94 1   
    94   93  100 1   
    95   94   95 1   
    96   94   97 1   
    97   94  101 1   
    98   95   96 2   
    99   95  109 1   
   100   97   98 1   
   101   97   99 1   
   102   97  102 1   
   103   98  103 1   
   104   98  104 1   
   105   98  105 1   
   106   99  106 1   
   107   99  107 1   
   108   99  108 1   
   109  109  110 1   
   110  109  117 1   
   111  110  111 1   
   112  110  113 1   
   113  110  118 1   
   114  111  112 2   
   115  111  123 1   
   116  113  114 1   
   117  113  119 1   
   118  113  120 1   
   119  114  115 1   
   120  114  116 2   
   121  115  121 1   
   122  115  122 1   
   123  123  124 1   
   124  123  135 1   
   125  124  125 1   
   126  124  127 1   
   127  124  136 1   
   128  125  126 2   
   129  125  144 1   
   130  127  128 1   
   131  127  137 1   
   132  127  138 1   
   133  128  129 ar  
   134  128  130 ar  
   135  129  131 ar  
   136  129  139 1   
   137  130  132 ar  
   138  130  140 1   
   139  131  133 ar  
   140  131  141 1   
   141  132  133 ar  
   142  132  142 1   
   143  133  134 1   
   144  134  143 1   
   145  144  145 1   
   146  144  153 1   
   147  145  146 1   
   148  145  148 1   
   149  145  154 1   
   150  146  147 2   
   151  146  159 1   
   152  148  149 1   
   153  148  155 1   
   154  148  156 1   
   155  149  150 1   
   156  149  157 1   
   157  149  158 1   
   158  150  151 1   
   159  150  152 1   
   160  159  160 1   
   161  159  168 1   
   162  160  161 1   
   163  160  163 1   
   164  160  169 1   
   165  161  162 2   
   166  161  174 1   
   167  163  164 1   
   168  163  170 1   
   169  163  171 1   
   170  164  165 1   
   171  164  172 1   
   172  164  173 1   
   173  165  166 1   
   174  165  167 1   
   175  174  175 1   
   176  174  179 1   
   177  175  176 1   
   178  175  177 1   
   179  175  178 1   
   180  181  182 1   
   181  181  183 1   
   182  184  185 1   
   183  184  186 1   
@<TRIPOS>SUBSTRUCTURE
     1 MOL         1 TEMP              0 ****  ****    0 ROOT
