@<TRIPOS>MOLECULE
MOL
  172   171     1     0     0
SMALL
resp


@<TRIPOS>ATOM
      1 C1          0.2310    3.8790    5.6880 c3        1 MOL     -0.404718
      2 C2         -0.3410    3.8310    4.2820 c         1 MOL      0.738857
      3 O1          0.4010    3.9760    3.2910 o         1 MOL     -0.554005
      4 H1          0.2570    4.9120    6.0340 hc        1 MOL      0.102125
      5 H2         -0.3960    3.2870    6.3560 hc        1 MOL      0.102125
      6 H3          1.2420    3.4730    5.6830 hc        1 MOL      0.102125
      7 N1         -1.6740    3.6780    4.0640 n         1 MOL     -0.688903
      8 C3         -2.2910    3.4490    2.7860 c3        1 MOL      0.427436
      9 C4         -2.3440    4.6780    1.8870 c         1 MOL      0.391489
     10 O2         -2.5150    5.7870    2.3410 o         1 MOL     -0.558090
     11 C5         -3.6640    2.8230    2.9530 c3        1 MOL     -0.235685
     12 C6         -4.2590    2.5740    1.6300 c         1 MOL      0.627451
     13 O3         -3.6520    1.9230    0.7610 o         1 MOL     -0.648075
     14 O4         -5.4170    3.1200    1.4620 o         1 MOL     -0.648075
     15 H4         -2.2340    3.5930    4.9010 hn        1 MOL      0.310232
     16 H5         -1.7190    2.6650    2.2850 h1        1 MOL     -0.037303
     17 H6         -4.2540    3.4460    3.6240 hc        1 MOL      0.032204
     18 H7         -3.5220    1.8830    3.4890 hc        1 MOL      0.032204
     19 N2         -2.3260    4.4750    0.5800 n         1 MOL     -0.227919
     20 C7         -2.5370    5.4400   -0.4450 c3        1 MOL      0.397529
     21 C8         -3.3220    4.8660   -1.6900 c         1 MOL      0.328275
     22 O5         -3.1710    5.3740   -2.8420 o         1 MOL     -0.549872
     23 C9         -1.2060    6.1380   -0.8100 c3        1 MOL     -0.365733
     24 H8         -2.1020    3.5360    0.2790 hn        1 MOL      0.153534
     25 H9         -3.2020    6.2190   -0.0760 h1        1 MOL     -0.023445
     26 H10        -0.5880    5.3590   -1.2520 hc        1 MOL      0.081082
     27 H11        -1.2440    6.9470   -1.5470 hc        1 MOL      0.081082
     28 H12        -0.7520    6.5570    0.0860 hc        1 MOL      0.081082
     29 N3         -4.1560    3.8470   -1.5480 n         1 MOL     -0.137265
     30 C10        -5.0340    3.3350   -2.6910 c3        1 MOL     -0.084790
     31 C11        -6.2150    2.4890   -2.2440 c         1 MOL      0.371931
     32 O6         -7.1650    2.2870   -2.9970 o         1 MOL     -0.521566
     33 C12        -4.1680    2.4830   -3.6680 c3        1 MOL     -0.049372
     34 C13        -3.1650    1.5490   -3.0170 c         1 MOL      0.700927
     35 O7         -2.0760    1.4520   -3.5370 o         1 MOL     -0.648604
     36 O8         -3.5190    0.6610   -2.1790 o         1 MOL     -0.648604
     37 H13        -4.2550    3.4440   -0.6250 hn        1 MOL      0.029833
     38 H14        -5.4070    4.1920   -3.2560 h1        1 MOL      0.101011
     39 H15        -3.5640    3.1100   -4.3050 hc        1 MOL      0.020549
     40 H16        -4.8190    1.8500   -4.2730 hc        1 MOL      0.020549
     41 N4         -6.2230    1.9380   -0.9950 n         1 MOL     -0.087152
     42 C14        -7.3470    1.0640   -0.6290 c3        1 MOL     -0.206369
     43 C15        -7.3450   -0.3430   -1.1530 c         1 MOL      0.485106
     44 O9         -8.4020   -0.9020   -1.3780 o         1 MOL     -0.593446
     45 H17        -5.5460    2.1230   -0.2680 hn        1 MOL      0.182256
     46 H18        -8.3180    1.4820   -0.8750 h1        1 MOL      0.088000
     47 H19        -7.2430    1.0420    0.4590 h1        1 MOL      0.088000
     48 N5         -6.1960   -0.8820   -1.5890 n         1 MOL      0.017042
     49 C16        -6.1530   -2.2570   -2.1340 c3        1 MOL     -0.204253
     50 C17        -6.2210   -3.4670   -1.1390 c         1 MOL      0.461113
     51 O10        -5.9340   -4.5630   -1.5580 o         1 MOL     -0.495185
     52 C18        -5.0200   -2.3650   -3.1320 c3        1 MOL      0.021110
     53 C19        -3.6640   -2.4410   -2.4470 c         1 MOL      0.480910
     54 N6         -2.5870   -2.6300   -3.1700 n         1 MOL     -0.604596
     55 O11        -3.5410   -2.2360   -1.2220 o         1 MOL     -0.646013
     56 H20        -5.3180   -0.3750   -1.5420 hn        1 MOL      0.015346
     57 H21        -7.0930   -2.3800   -2.6730 h1        1 MOL      0.122721
     58 H22        -4.9270   -1.4640   -3.7410 hc        1 MOL      0.032844
     59 H23        -5.2000   -3.2040   -3.8010 hc        1 MOL      0.032844
     60 H24        -2.7740   -2.7000   -4.1650 hn        1 MOL      0.342892
     61 H25        -1.7300   -2.4370   -2.6840 hn        1 MOL      0.342892
     62 N7         -6.2550   -3.1370    0.1610 n         1 MOL     -0.188024
     63 C20        -6.2050   -3.9530    1.3450 c3        1 MOL     -0.498186
     64 C21        -4.8930   -4.3750    1.9430 c         1 MOL      0.620338
     65 O12        -4.8710   -5.0670    2.9240 o         1 MOL     -0.567468
     66 H26        -6.4150   -2.1630    0.3200 hn        1 MOL      0.198504
     67 H27        -6.6470   -4.9380    1.1890 h1        1 MOL      0.186273
     68 H28        -6.6590   -3.3690    2.1440 h1        1 MOL      0.186273
     69 N8         -3.7720   -3.9540    1.3160 n         1 MOL     -0.499385
     70 C22        -2.4000   -4.5180    1.5690 c3        1 MOL     -0.227660
     71 C23        -1.3570   -3.4510    1.5670 c         1 MOL      0.526213
     72 O13        -1.5810   -2.4820    0.8810 o         1 MOL     -0.491505
     73 C24        -2.1740   -5.5350    0.4770 c3        1 MOL      0.504351
     74 C25        -3.1470   -6.6670    0.5730 c3        1 MOL     -0.413641
     75 O14        -2.3040   -4.9980   -0.8360 oh        1 MOL     -0.586234
     76 H29        -3.8070   -3.2880    0.5510 hn        1 MOL      0.570259
     77 H30        -2.3920   -5.0930    2.4940 h1        1 MOL      0.123662
     78 H31        -1.1470   -5.9070    0.5260 h1        1 MOL     -0.028135
     79 H32        -2.5540   -4.0790   -0.7280 ho        1 MOL      0.313881
     80 H33        -4.1890   -6.4100    0.3580 hc        1 MOL      0.099661
     81 H34        -2.9520   -7.4400   -0.1710 hc        1 MOL      0.099661
     82 H35        -2.9760   -7.1390    1.5380 hc        1 MOL      0.099661
     83 N9         -0.1670   -3.6830    2.2010 n         1 MOL     -0.446124
     84 C26         0.8760   -2.6470    2.2250 c3        1 MOL     -0.056076
     85 C27         1.7800   -2.8550    0.9510 c         1 MOL      0.540728
     86 O15         2.2260   -4.0200    0.7920 o         1 MOL     -0.623483
     87 C28         1.7470   -2.7630    3.5260 c3        1 MOL      0.339904
     88 C29         0.8320   -2.4590    4.7360 c3        1 MOL      0.035304
     89 C30         3.0240   -1.8280    3.4180 c3        1 MOL     -0.002899
     90 C31         1.5100   -2.3480    6.0660 c3        1 MOL     -0.229660
     91 H36        -0.1320   -4.5090    2.7750 hn        1 MOL      0.274956
     92 H37         0.4370   -1.6520    2.1390 h1        1 MOL      0.050262
     93 H38         2.1240   -3.7750    3.6920 hc        1 MOL     -0.079231
     94 H39         0.0930   -3.2570    4.6850 hc        1 MOL     -0.021236
     95 H40         0.3440   -1.5220    4.4670 hc        1 MOL     -0.021236
     96 H41         3.7070   -2.3790    2.7740 hc        1 MOL     -0.022860
     97 H42         2.6770   -0.8580    3.0780 hc        1 MOL     -0.022860
     98 H43         3.5350   -1.8310    4.3830 hc        1 MOL     -0.022860
     99 H44         0.7400   -2.3020    6.8260 hc        1 MOL      0.047382
    100 H45         2.1890   -3.1750    6.2710 hc        1 MOL      0.047382
    101 H46         2.0990   -1.4300    6.0850 hc        1 MOL      0.047382
    102 N10         2.0130   -1.8840    0.0810 n         1 MOL     -0.069031
    103 C32         2.8250   -1.9680   -1.2190 c3        1 MOL     -0.020274
    104 C33         4.3160   -1.4800   -0.8420 c         1 MOL      0.399863
    105 O16         4.4750   -0.9810    0.2800 o         1 MOL     -0.422187
    106 C34         2.0770   -1.0510   -2.2650 c3        1 MOL     -0.125412
    107 C35         0.5780   -1.4630   -2.5030 c         1 MOL      0.577627
    108 O17        -0.2630   -1.1820   -1.6350 o         1 MOL     -0.633701
    109 O18         0.2220   -1.7370   -3.6850 o         1 MOL     -0.633701
    110 H47         1.6060   -1.0020    0.3360 hn        1 MOL     -0.109977
    111 H48         2.8330   -2.9770   -1.6130 h1        1 MOL      0.090743
    112 H49         2.6660   -0.9680   -3.1790 hc        1 MOL      0.082089
    113 H50         1.9780   -0.0560   -1.8260 hc        1 MOL      0.082089
    114 N11         5.2690   -1.6360   -1.7330 n         1 MOL     -0.566417
    115 C36         6.6260   -1.1490   -1.4300 c3        1 MOL      0.463080
    116 C37         6.6740    0.3770   -1.1390 c         1 MOL      0.291557
    117 O19         7.2250    0.7420   -0.0420 o         1 MOL     -0.511396
    118 C38         7.6450   -1.6420   -2.5400 c3        1 MOL     -0.267902
    119 C39         9.1350   -1.6830   -2.2180 ca        1 MOL      0.135026
    120 C40         9.6210   -2.2410   -1.0020 ca        1 MOL     -0.202289
    121 C41        10.0440   -1.0180   -3.0550 ca        1 MOL     -0.202289
    122 C42        10.9970   -2.2320   -0.6560 ca        1 MOL     -0.089408
    123 C43        11.4150   -1.1160   -2.6940 ca        1 MOL     -0.089408
    124 C44        11.8930   -1.6600   -1.5470 ca        1 MOL     -0.105830
    125 H51         5.1660   -2.1490   -2.6010 hn        1 MOL      0.315671
    126 H52         6.9850   -1.5870   -0.5020 h1        1 MOL      0.015712
    127 H53         7.4620   -1.0070   -3.4110 hc        1 MOL      0.069698
    128 H54         7.3700   -2.6810   -2.7170 hc        1 MOL      0.069698
    129 H55         8.9800   -2.6950   -0.2650 ha        1 MOL      0.136201
    130 H56         9.7890   -0.5390   -3.9830 ha        1 MOL      0.136201
    131 H57        11.3360   -2.6600    0.2700 ha        1 MOL      0.101900
    132 H58        12.0630   -0.6000   -3.3790 ha        1 MOL      0.101900
    133 H59        12.9470   -1.7570   -1.3830 ha        1 MOL      0.093849
    134 N12         5.9590    1.2720   -1.9100 n         1 MOL     -0.111229
    135 C45         5.8580    2.6760   -1.4710 c3        1 MOL      0.028399
    136 C46         5.2350    2.9220   -0.1040 c         1 MOL      0.335096
    137 O20         5.5780    3.9680    0.4240 o         1 MOL     -0.509456
    138 C47         5.0450    3.2310   -2.6310 c3        1 MOL     -0.108162
    139 C48         5.3070    2.4090   -3.8450 c3        1 MOL      0.122652
    140 C49         5.3920    0.9940   -3.2220 c3        1 MOL     -0.006059
    141 H60         6.8450    3.1290   -1.5030 h1        1 MOL      0.064720
    142 H61         4.0110    3.0420   -2.3630 hc        1 MOL      0.048243
    143 H62         5.1970    4.2960   -2.7820 hc        1 MOL      0.048243
    144 H63         4.6100    2.5360   -4.6800 hc        1 MOL     -0.009678
    145 H64         6.2580    2.6960   -4.2910 hc        1 MOL     -0.009678
    146 H65         4.4220    0.5130   -3.1270 h1        1 MOL      0.003425
    147 H66         6.0230    0.4080   -3.8910 h1        1 MOL      0.003425
    148 N13         4.4260    1.9890    0.4250 n         1 MOL     -0.015346
    149 C50         3.8310    2.0410    1.7380 c3        1 MOL     -0.138930
    150 C51         4.7040    1.3770    2.8120 c         1 MOL      0.424105
    151 O21         4.7480    1.8940    3.9470 o         1 MOL     -0.581884
    152 C52         2.4020    1.4700    1.6730 c3        1 MOL      0.091165
    153 C53         1.5580    2.2600    0.6640 c3        1 MOL      0.011202
    154 C54         0.1530    1.6200    0.5960 c         1 MOL      0.517936
    155 O22        -0.6150    2.0530   -0.2860 o         1 MOL     -0.664890
    156 O23        -0.0300    0.4980    1.1260 o         1 MOL     -0.664890
    157 H67         4.2360    1.1690   -0.1390 hn        1 MOL      0.108732
    158 H68         3.6830    3.0810    2.0010 h1        1 MOL      0.107219
    159 H69         1.9630    1.5670    2.6630 hc        1 MOL      0.037111
    160 H70         2.4650    0.4100    1.4230 hc        1 MOL      0.037111
    161 H71         2.0950    2.0740   -0.2730 hc        1 MOL      0.014937
    162 H72         1.6170    3.3270    0.8790 hc        1 MOL      0.014937
    163 N14         5.4680    0.3060    2.5820 n         1 MOL     -0.011466
    164 C55         6.5850   -0.1440    3.3630 c3        1 MOL     -0.142141
    165 H73         6.8130    0.5960    4.1290 h1        1 MOL      0.053140
    166 H74         6.3390   -1.0940    3.8370 h1        1 MOL      0.053140
    167 H75         7.4520   -0.2760    2.7150 h1        1 MOL      0.053140
    168 H76         5.3880   -0.1100    1.6640 hn        1 MOL      0.116289
    169 Ca1        -2.0720   -0.1270   -0.2990 Ca        1 MOL      1.671454
    170 O24        -4.1470   -0.8240    1.4830 oh        1 MOL     -0.878750
    171 H77        -5.0960   -0.6970    1.4200 ho        1 MOL      0.416058
    172 H78        -3.9150   -0.4800    2.3450 ho        1 MOL      0.416058
@<TRIPOS>BOND
     1    1    2 1   
     2    1    4 1   
     3    1    5 1   
     4    1    6 1   
     5    2    3 2   
     6    2    7 1   
     7    7    8 1   
     8    7   15 1   
     9    8    9 1   
    10    8   11 1   
    11    8   16 1   
    12    9   10 2   
    13    9   19 1   
    14   11   12 1   
    15   11   17 1   
    16   11   18 1   
    17   12   13 1   
    18   12   14 1   
    19   19   20 1   
    20   19   24 1   
    21   20   21 1   
    22   20   23 1   
    23   20   25 1   
    24   21   22 2   
    25   21   29 1   
    26   23   26 1   
    27   23   27 1   
    28   23   28 1   
    29   29   30 1   
    30   29   37 1   
    31   30   31 1   
    32   30   33 1   
    33   30   38 1   
    34   31   32 2   
    35   31   41 1   
    36   33   34 1   
    37   33   39 1   
    38   33   40 1   
    39   34   35 1   
    40   34   36 1   
    41   41   42 1   
    42   41   45 1   
    43   42   43 1   
    44   42   46 1   
    45   42   47 1   
    46   43   44 2   
    47   43   48 1   
    48   48   49 1   
    49   48   56 1   
    50   49   50 1   
    51   49   52 1   
    52   49   57 1   
    53   50   51 2   
    54   50   62 1   
    55   52   53 1   
    56   52   58 1   
    57   52   59 1   
    58   53   54 1   
    59   53   55 2   
    60   54   60 1   
    61   54   61 1   
    62   62   63 1   
    63   62   66 1   
    64   63   64 1   
    65   63   67 1   
    66   63   68 1   
    67   64   65 2   
    68   64   69 1   
    69   69   70 1   
    70   69   76 1   
    71   70   71 1   
    72   70   73 1   
    73   70   77 1   
    74   71   72 2   
    75   71   83 1   
    76   73   74 1   
    77   73   75 1   
    78   73   78 1   
    79   74   80 1   
    80   74   81 1   
    81   74   82 1   
    82   75   79 1   
    83   83   84 1   
    84   83   91 1   
    85   84   85 1   
    86   84   87 1   
    87   84   92 1   
    88   85   86 2   
    89   85  102 1   
    90   87   88 1   
    91   87   89 1   
    92   87   93 1   
    93   88   90 1   
    94   88   94 1   
    95   88   95 1   
    96   89   96 1   
    97   89   97 1   
    98   89   98 1   
    99   90   99 1   
   100   90  100 1   
   101   90  101 1   
   102  102  103 1   
   103  102  110 1   
   104  103  104 1   
   105  103  106 1   
   106  103  111 1   
   107  104  105 2   
   108  104  114 1   
   109  106  107 1   
   110  106  112 1   
   111  106  113 1   
   112  107  108 1   
   113  107  109 1   
   114  114  115 1   
   115  114  125 1   
   116  115  116 1   
   117  115  118 1   
   118  115  126 1   
   119  116  117 2   
   120  116  134 1   
   121  118  119 1   
   122  118  127 1   
   123  118  128 1   
   124  119  120 ar  
   125  119  121 ar  
   126  120  122 ar  
   127  120  129 1   
   128  121  123 ar  
   129  121  130 1   
   130  122  124 ar  
   131  122  131 1   
   132  123  124 ar  
   133  123  132 1   
   134  124  133 1   
   135  134  135 1   
   136  134  140 1   
   137  135  136 1   
   138  135  138 1   
   139  135  141 1   
   140  136  137 2   
   141  136  148 1   
   142  138  139 1   
   143  138  142 1   
   144  138  143 1   
   145  139  140 1   
   146  139  144 1   
   147  139  145 1   
   148  140  146 1   
   149  140  147 1   
   150  148  149 1   
   151  148  157 1   
   152  149  150 1   
   153  149  152 1   
   154  149  158 1   
   155  150  151 2   
   156  150  163 1   
   157  152  153 1   
   158  152  159 1   
   159  152  160 1   
   160  153  154 1   
   161  153  161 1   
   162  153  162 1   
   163  154  155 1   
   164  154  156 1   
   165  163  164 1   
   166  163  168 1   
   167  164  165 1   
   168  164  166 1   
   169  164  167 1   
   170  170  171 1   
   171  170  172 1   
@<TRIPOS>SUBSTRUCTURE
     1 MOL         1 TEMP              0 ****  ****    0 ROOT
