@<TRIPOS>MOLECULE
MOL
  172   171     1     0     0
SMALL
resp


@<TRIPOS>ATOM
      1 C1          0.3030    3.5020    5.7890 c3        1 MOL     -0.360692
      2 C2          0.0470    3.1750    4.3220 c         1 MOL      0.725098
      3 O1          0.8310    3.5790    3.5110 o         1 MOL     -0.553145
      4 H1          1.2730    3.1050    6.0850 hc        1 MOL      0.080052
      5 H2          0.2950    4.5830    5.9280 hc        1 MOL      0.080052
      6 H3         -0.4770    3.0500    6.4030 hc        1 MOL      0.080052
      7 N1         -1.0830    2.5470    4.0580 n         1 MOL     -0.538486
      8 C3         -1.5490    2.3120    2.7470 c3        1 MOL      0.129456
      9 C4         -1.9810    3.5690    2.0300 c         1 MOL      0.499819
     10 O2         -2.7870    4.3660    2.6060 o         1 MOL     -0.565470
     11 C5         -2.7360    1.3760    3.0040 c3        1 MOL     -0.399983
     12 C6         -3.5860    1.0250    1.7780 c         1 MOL      0.875026
     13 O3         -4.6530    0.3440    1.9960 o         1 MOL     -0.746073
     14 O4         -3.1140    1.2060    0.6720 o         1 MOL     -0.746073
     15 H4         -1.7300    2.1960    4.7410 hn        1 MOL      0.303173
     16 H5         -0.7980    1.7510    2.1970 h1        1 MOL      0.096478
     17 H6         -3.4160    1.9800    3.6120 hc        1 MOL      0.089353
     18 H7         -2.3500    0.4440    3.4100 hc        1 MOL      0.089353
     19 N2         -1.5860    3.7680    0.7620 n         1 MOL     -0.287508
     20 C7         -1.5830    5.0170    0.0430 c3        1 MOL      0.274227
     21 C8         -2.9280    5.1730   -0.8030 c         1 MOL      0.302920
     22 O5         -3.6840    6.1280   -0.7270 o         1 MOL     -0.537002
     23 C9         -0.2770    5.2230   -0.7380 c3        1 MOL     -0.297041
     24 H8         -1.0510    3.0240    0.3560 hn        1 MOL      0.110591
     25 H9         -1.6110    5.7660    0.8330 h1        1 MOL      0.022915
     26 H10         0.3380    4.3230   -0.7430 hc        1 MOL      0.069653
     27 H11        -0.4390    5.3640   -1.8090 hc        1 MOL      0.069653
     28 H12         0.3510    5.9810   -0.2700 hc        1 MOL      0.069653
     29 N3         -3.2870    4.1730   -1.6200 n         1 MOL     -0.185700
     30 C10        -4.5930    4.0840   -2.4040 c3        1 MOL      0.059980
     31 C11        -5.7810    3.6800   -1.5790 c         1 MOL      0.484825
     32 O6         -6.9360    4.0120   -1.9940 o         1 MOL     -0.581831
     33 C12        -4.4050    3.1550   -3.5920 c3        1 MOL     -0.455388
     34 C13        -3.6490    1.8880   -3.1780 c         1 MOL      0.829525
     35 O7         -4.0460    1.2170   -2.2120 o         1 MOL     -0.738649
     36 O8         -2.5850    1.5100   -3.7280 o         1 MOL     -0.738649
     37 H13        -2.7800    3.3080   -1.6010 hn        1 MOL      0.208179
     38 H14        -4.8040    5.0910   -2.7560 h1        1 MOL      0.091790
     39 H15        -3.7080    3.7440   -4.1890 hc        1 MOL      0.118965
     40 H16        -5.4060    2.9500   -3.9750 hc        1 MOL      0.118965
     41 N4         -5.5040    2.9260   -0.5110 n         1 MOL     -0.227695
     42 C14        -6.5490    2.4830    0.3960 c3        1 MOL      0.006486
     43 C15        -7.2090    1.2260   -0.0040 c         1 MOL      0.521525
     44 O9         -8.3770    1.1530    0.0920 o         1 MOL     -0.608734
     45 H17        -4.6270    2.4570   -0.6320 hn        1 MOL      0.140834
     46 H18        -7.3210    3.2380    0.5310 h1        1 MOL      0.056029
     47 H19        -6.1940    2.3940    1.4320 h1        1 MOL      0.056029
     48 N5         -6.4700    0.2550   -0.4970 n         1 MOL     -0.112995
     49 C16        -7.0420   -0.9620   -0.9140 c3        1 MOL      0.032464
     50 C17        -6.8580   -2.0980    0.0980 c         1 MOL      0.394005
     51 O10        -7.3500   -3.1850   -0.2300 o         1 MOL     -0.537275
     52 C18        -6.4870   -1.2430   -2.3180 c3        1 MOL     -0.211181
     53 C19        -5.0640   -1.6670   -2.4080 c         1 MOL      0.512516
     54 N6         -4.6740   -2.2860   -3.4770 n         1 MOL     -0.631113
     55 O11        -4.2860   -1.6640   -1.4290 o         1 MOL     -0.519888
     56 H20        -5.5010    0.4690   -0.6450 hn        1 MOL      0.081351
     57 H21        -8.1230   -0.8730   -0.9200 h1        1 MOL      0.094238
     58 H22        -6.6400   -0.3290   -2.8940 hc        1 MOL      0.082234
     59 H23        -7.1550   -1.9920   -2.7460 hc        1 MOL      0.082234
     60 H24        -5.2030   -2.2840   -4.3390 hn        1 MOL      0.335985
     61 H25        -3.7150   -2.5850   -3.5430 hn        1 MOL      0.335985
     62 N7         -6.2540   -1.8100    1.2800 n         1 MOL     -0.147366
     63 C20        -6.1050   -2.7460    2.3400 c3        1 MOL     -0.278207
     64 C21        -4.9990   -3.7560    2.0820 c         1 MOL      0.554538
     65 O12        -4.9960   -4.7660    2.7500 o         1 MOL     -0.558855
     66 H26        -5.8880   -0.8890    1.4260 hn        1 MOL      0.191734
     67 H27        -7.0860   -3.1630    2.5810 h1        1 MOL      0.125119
     68 H28        -5.7050   -2.0990    3.1200 h1        1 MOL      0.125119
     69 N8         -4.0820   -3.5210    1.1340 n         1 MOL     -0.062472
     70 C22        -2.9850   -4.4360    0.6310 c3        1 MOL     -0.628179
     71 C23        -1.7210   -3.6850    0.4670 c         1 MOL      0.945285
     72 O13        -1.7140   -2.7060   -0.2950 o         1 MOL     -0.700626
     73 C24        -3.4020   -5.3300   -0.5170 c3        1 MOL      0.574865
     74 C25        -4.6320   -6.1770   -0.1620 c3        1 MOL     -0.510369
     75 O14        -3.6930   -4.5300   -1.6420 oh        1 MOL     -0.656187
     76 H29        -4.0570   -2.6270    0.6650 hn        1 MOL      0.106261
     77 H30        -2.7290   -5.1320    1.4360 h1        1 MOL      0.128888
     78 H31        -2.5340   -5.9460   -0.7560 h1        1 MOL     -0.004238
     79 H32        -3.9370   -3.6320   -1.4050 ho        1 MOL      0.448125
     80 H33        -5.4830   -5.5580    0.1280 hc        1 MOL      0.123675
     81 H34        -4.7930   -6.8910   -0.9680 hc        1 MOL      0.123675
     82 H35        -4.4350   -6.7730    0.7370 hc        1 MOL      0.123675
     83 N9         -0.7200   -3.9800    1.3200 n         1 MOL     -0.684921
     84 C26         0.4900   -3.1790    1.3840 c3        1 MOL      0.016019
     85 C27         1.3520   -3.4330    0.1410 c         1 MOL      0.653538
     86 O15         1.5000   -4.5330   -0.3090 o         1 MOL     -0.574535
     87 C28         1.2290   -3.5940    2.6680 c3        1 MOL      0.170751
     88 C29         0.6010   -2.9970    4.0060 c3        1 MOL      0.104072
     89 C30         2.7470   -3.3480    2.5960 c3        1 MOL     -0.079440
     90 C31         1.1580   -3.6600    5.2340 c3        1 MOL     -0.214581
     91 H36        -0.8370   -4.8440    1.8350 hn        1 MOL      0.348327
     92 H37         0.2200   -2.1320    1.5170 h1        1 MOL      0.074889
     93 H38         1.2010   -4.6870    2.7080 hc        1 MOL     -0.041255
     94 H39        -0.4530   -3.2370    3.9970 hc        1 MOL     -0.007683
     95 H40         0.7200   -1.9110    4.0500 hc        1 MOL     -0.007683
     96 H41         2.9250   -2.2880    2.4140 hc        1 MOL      0.000235
     97 H42         3.2850   -3.5850    3.5180 hc        1 MOL      0.000235
     98 H43         3.2170   -3.9440    1.8130 hc        1 MOL      0.000235
     99 H44         2.2220   -3.5450    5.1170 hc        1 MOL      0.042112
    100 H45         0.9190   -3.1680    6.1730 hc        1 MOL      0.042112
    101 H46         0.8150   -4.6920    5.3280 hc        1 MOL      0.042112
    102 N10         1.9360   -2.3170   -0.3070 n         1 MOL     -0.305847
    103 C32         2.9600   -2.0520   -1.3320 c3        1 MOL      0.044235
    104 C33         4.2930   -1.5300   -0.8050 c         1 MOL      0.468314
    105 O16         4.4260   -1.0970    0.3320 o         1 MOL     -0.356429
    106 C34         2.4220   -1.0450   -2.3730 c3        1 MOL     -0.204491
    107 C35         1.1230   -1.4550   -3.0030 c         1 MOL      0.772804
    108 O17         0.1440   -0.7280   -2.7990 o         1 MOL     -0.711087
    109 O18         1.0450   -2.3590   -3.8630 o         1 MOL     -0.711087
    110 H47         1.6340   -1.4840    0.1770 hn        1 MOL      0.091559
    111 H48         3.1430   -3.0050   -1.8240 h1        1 MOL      0.056269
    112 H49         3.0780   -1.0320   -3.2350 hc        1 MOL      0.052068
    113 H50         2.4540   -0.0290   -1.9840 hc        1 MOL      0.052068
    114 N11         5.3650   -1.5980   -1.6110 n         1 MOL     -0.536944
    115 C36         6.6850   -1.2330   -1.2730 c3        1 MOL      0.237932
    116 C37         6.8360    0.1760   -0.7390 c         1 MOL      0.330675
    117 O19         7.3100    0.3200    0.3500 o         1 MOL     -0.523397
    118 C38         7.6930   -1.5490   -2.4140 c3        1 MOL     -0.153068
    119 C39         9.0700   -1.3780   -1.9790 ca        1 MOL      0.161477
    120 C40         9.7250   -2.4600   -1.4560 ca        1 MOL     -0.274918
    121 C41         9.6570   -0.0650   -2.0080 ca        1 MOL     -0.274918
    122 C42        10.9760   -2.2870   -0.8700 ca        1 MOL      0.024905
    123 C43        10.9720    0.0510   -1.4990 ca        1 MOL      0.024905
    124 C44        11.6240   -1.0790   -0.9600 ca        1 MOL     -0.244317
    125 H51         5.2170   -2.0250   -2.5070 hn        1 MOL      0.280761
    126 H52         6.9540   -1.9150   -0.4740 h1        1 MOL      0.062464
    127 H53         7.4680   -1.2230   -3.4310 hc        1 MOL      0.049413
    128 H54         7.6710   -2.6340   -2.4830 hc        1 MOL      0.049413
    129 H55         9.1970   -3.3960   -1.4640 ha        1 MOL      0.142386
    130 H56         9.0500    0.7680   -2.3090 ha        1 MOL      0.142386
    131 H57        11.4970   -3.1280   -0.4580 ha        1 MOL      0.080818
    132 H58        11.4280    1.0220   -1.5640 ha        1 MOL      0.080818
    133 H59        12.5730   -0.9840   -0.4420 ha        1 MOL      0.126138
    134 N12         6.4050    1.2310   -1.3650 n         1 MOL      0.047385
    135 C45         6.5130    2.5770   -0.6910 c3        1 MOL     -0.008174
    136 C46         5.6260    2.7720    0.5200 c         1 MOL      0.322133
    137 O20         5.7980    3.6750    1.3030 o         1 MOL     -0.504999
    138 C47         6.0260    3.5120   -1.8040 c3        1 MOL     -0.018243
    139 C48         6.2150    2.7990   -3.1510 c3        1 MOL     -0.012458
    140 C49         5.9690    1.3400   -2.7540 c3        1 MOL     -0.109934
    141 H60         7.5260    2.8340   -0.4010 h1        1 MOL      0.075917
    142 H61         4.9770    3.7520   -1.6620 hc        1 MOL      0.024071
    143 H62         6.5830    4.4390   -1.6770 hc        1 MOL      0.024071
    144 H63         5.5550    3.2910   -3.8610 hc        1 MOL      0.022386
    145 H64         7.2400    2.9930   -3.4430 hc        1 MOL      0.022386
    146 H65         4.9350    1.0260   -2.8760 h1        1 MOL      0.052053
    147 H66         6.6280    0.8430   -3.4620 h1        1 MOL      0.052053
    148 N13         4.6570    1.8680    0.7800 n         1 MOL      0.001144
    149 C50         3.7730    1.7900    1.8950 c3        1 MOL     -0.096635
    150 C51         4.4790    1.0860    3.0680 c         1 MOL      0.508349
    151 O21         4.5570    1.6300    4.1480 o         1 MOL     -0.554547
    152 C52         2.3890    1.1690    1.5730 c3        1 MOL     -0.359462
    153 C53         1.7660    1.8370    0.3140 c3        1 MOL      0.239636
    154 C54         0.4790    1.2180   -0.1810 c         1 MOL      0.479900
    155 O22         0.1430    0.0400    0.1640 o         1 MOL     -0.660723
    156 O23        -0.3040    1.8140   -0.9010 o         1 MOL     -0.660723
    157 H67         4.5020    1.2110    0.0280 hn        1 MOL      0.121915
    158 H68         3.4810    2.8240    2.1290 h1        1 MOL      0.115387
    159 H69         1.7580    1.3690    2.4350 hc        1 MOL      0.101326
    160 H70         2.4620    0.1240    1.2440 hc        1 MOL      0.101326
    161 H71         2.5570    1.7750   -0.4320 hc        1 MOL     -0.016747
    162 H72         1.6920    2.9160    0.4410 hc        1 MOL     -0.016747
    163 N14         5.1550   -0.0560    2.8170 n         1 MOL     -0.075263
    164 C55         6.0980   -0.6310    3.7470 c3        1 MOL     -0.307252
    165 H73         6.2880   -1.6700    3.4760 h1        1 MOL      0.106276
    166 H74         7.0320   -0.0700    3.7120 h1        1 MOL      0.106276
    167 H75         5.6870   -0.5890    4.7550 h1        1 MOL      0.106276
    168 H76         5.0410   -0.2690    1.8360 hn        1 MOL      0.063907
    169 Ca1        -2.0890   -0.1940   -1.2900 Ca        1 MOL      1.786071
    170 O24        -1.9290   -2.0740   -3.5350 oh        1 MOL     -0.917018
    171 H77        -1.1890   -1.4690   -3.5050 ho        1 MOL      0.431642
    172 H78        -1.5990   -2.8250   -4.0270 ho        1 MOL      0.431642
@<TRIPOS>BOND
     1    1    2 1   
     2    1    4 1   
     3    1    5 1   
     4    1    6 1   
     5    2    3 2   
     6    2    7 1   
     7    7    8 1   
     8    7   15 1   
     9    8    9 1   
    10    8   11 1   
    11    8   16 1   
    12    9   10 2   
    13    9   19 1   
    14   11   12 1   
    15   11   17 1   
    16   11   18 1   
    17   12   13 1   
    18   12   14 1   
    19   19   20 1   
    20   19   24 1   
    21   20   21 1   
    22   20   23 1   
    23   20   25 1   
    24   21   22 2   
    25   21   29 1   
    26   23   26 1   
    27   23   27 1   
    28   23   28 1   
    29   29   30 1   
    30   29   37 1   
    31   30   31 1   
    32   30   33 1   
    33   30   38 1   
    34   31   32 2   
    35   31   41 1   
    36   33   34 1   
    37   33   39 1   
    38   33   40 1   
    39   34   35 1   
    40   34   36 1   
    41   41   42 1   
    42   41   45 1   
    43   42   43 1   
    44   42   46 1   
    45   42   47 1   
    46   43   44 2   
    47   43   48 1   
    48   48   49 1   
    49   48   56 1   
    50   49   50 1   
    51   49   52 1   
    52   49   57 1   
    53   50   51 2   
    54   50   62 1   
    55   52   53 1   
    56   52   58 1   
    57   52   59 1   
    58   53   54 1   
    59   53   55 2   
    60   54   60 1   
    61   54   61 1   
    62   62   63 1   
    63   62   66 1   
    64   63   64 1   
    65   63   67 1   
    66   63   68 1   
    67   64   65 2   
    68   64   69 1   
    69   69   70 1   
    70   69   76 1   
    71   70   71 1   
    72   70   73 1   
    73   70   77 1   
    74   71   72 2   
    75   71   83 1   
    76   73   74 1   
    77   73   75 1   
    78   73   78 1   
    79   74   80 1   
    80   74   81 1   
    81   74   82 1   
    82   75   79 1   
    83   83   84 1   
    84   83   91 1   
    85   84   85 1   
    86   84   87 1   
    87   84   92 1   
    88   85   86 2   
    89   85  102 1   
    90   87   88 1   
    91   87   89 1   
    92   87   93 1   
    93   88   90 1   
    94   88   94 1   
    95   88   95 1   
    96   89   96 1   
    97   89   97 1   
    98   89   98 1   
    99   90   99 1   
   100   90  100 1   
   101   90  101 1   
   102  102  103 1   
   103  102  110 1   
   104  103  104 1   
   105  103  106 1   
   106  103  111 1   
   107  104  105 2   
   108  104  114 1   
   109  106  107 1   
   110  106  112 1   
   111  106  113 1   
   112  107  108 1   
   113  107  109 1   
   114  114  115 1   
   115  114  125 1   
   116  115  116 1   
   117  115  118 1   
   118  115  126 1   
   119  116  117 2   
   120  116  134 1   
   121  118  119 1   
   122  118  127 1   
   123  118  128 1   
   124  119  120 ar  
   125  119  121 ar  
   126  120  122 ar  
   127  120  129 1   
   128  121  123 ar  
   129  121  130 1   
   130  122  124 ar  
   131  122  131 1   
   132  123  124 ar  
   133  123  132 1   
   134  124  133 1   
   135  134  135 1   
   136  134  140 1   
   137  135  136 1   
   138  135  138 1   
   139  135  141 1   
   140  136  137 2   
   141  136  148 1   
   142  138  139 1   
   143  138  142 1   
   144  138  143 1   
   145  139  140 1   
   146  139  144 1   
   147  139  145 1   
   148  140  146 1   
   149  140  147 1   
   150  148  149 1   
   151  148  157 1   
   152  149  150 1   
   153  149  152 1   
   154  149  158 1   
   155  150  151 2   
   156  150  163 1   
   157  152  153 1   
   158  152  159 1   
   159  152  160 1   
   160  153  154 1   
   161  153  161 1   
   162  153  162 1   
   163  154  155 1   
   164  154  156 1   
   165  163  164 1   
   166  163  168 1   
   167  164  165 1   
   168  164  166 1   
   169  164  167 1   
   170  170  171 1   
   171  170  172 1   
@<TRIPOS>SUBSTRUCTURE
     1 MOL         1 TEMP              0 ****  ****    0 ROOT
