@<TRIPOS>MOLECULE
MOL
  179   176     1     0     0
SMALL
resp


@<TRIPOS>ATOM
      1 C1          0.5580    3.1150    6.4190 c3        1 MOL     -0.239783
      2 C2          0.7430    2.7470    4.9290 c         1 MOL      0.682422
      3 O1          1.9130    2.6490    4.4430 o         1 MOL     -0.571287
      4 H1          1.5280    3.3480    6.8580 hc        1 MOL      0.059960
      5 H2         -0.0950    3.9840    6.5010 hc        1 MOL      0.059960
      6 H3          0.1130    2.2730    6.9490 hc        1 MOL      0.059960
      7 N1         -0.3810    2.6270    4.2220 n         1 MOL     -0.598735
      8 C3         -0.5200    2.4780    2.8030 c3        1 MOL      0.163321
      9 C4          0.1550    3.6490    2.0820 c         1 MOL      0.622589
     10 O2         -0.0190    4.7570    2.6010 o         1 MOL     -0.560074
     11 C5         -1.9850    2.2350    2.4220 c3        1 MOL     -0.220228
     12 C6         -1.9730    1.6740    1.0170 c         1 MOL      0.973832
     13 O3         -1.9840    2.4320    0.0520 o         1 MOL     -0.834749
     14 O4         -2.1830    0.4560    0.8310 o         1 MOL     -0.834749
     15 H4         -1.1720    3.0030    4.7270 hn        1 MOL      0.319256
     16 H5          0.0390    1.5680    2.5780 h1        1 MOL      0.021376
     17 H6         -2.4900    3.1930    2.3450 hc        1 MOL      0.038690
     18 H7         -2.4330    1.5250    3.1100 hc        1 MOL      0.038690
     19 N2          0.8780    3.4150    1.0010 n         1 MOL     -0.537248
     20 C7          1.6480    4.4030    0.2890 c3        1 MOL      0.224686
     21 C8          0.9270    5.2060   -0.8340 c         1 MOL      0.348888
     22 O5          1.4670    6.1280   -1.4720 o         1 MOL     -0.545722
     23 C9          3.1090    3.9230   -0.0300 c3        1 MOL     -0.229184
     24 C10         4.0970    5.1200   -0.0030 c3        1 MOL      0.047737
     25 C11         5.5270    4.8070    0.0430 c3        1 MOL     -0.074831
     26 C12         6.4040    6.1060    0.1090 c3        1 MOL     -0.193333
     27 N3          6.0610    7.2020   -0.8690 n4        1 MOL     -0.240471
     28 H8          1.0300    2.4520    0.7310 hn        1 MOL      0.301675
     29 H9          1.7660    5.2170    0.9970 h1        1 MOL      0.014380
     30 H10         3.3040    3.3770   -0.9460 hc        1 MOL      0.134138
     31 H11         3.3700    3.4080    0.8890 hc        1 MOL      0.134138
     32 H12         3.8610    5.8090    0.8080 hc        1 MOL      0.006113
     33 H13         3.8330    5.7470   -0.8520 hc        1 MOL      0.006113
     34 H14         5.8780    4.2080   -0.7890 hc        1 MOL      0.088418
     35 H15         5.5660    4.2140    0.9560 hc        1 MOL      0.088418
     36 H16         7.3850    5.6660   -0.0330 hx        1 MOL      0.146211
     37 H17         6.2760    6.4210    1.1490 hx        1 MOL      0.146211
     38 H18         6.6370    8.0290   -0.7740 hn        1 MOL      0.306638
     39 H19         6.1630    6.8590   -1.8170 hn        1 MOL      0.306638
     40 H20         5.1240    7.5820   -0.8030 hn        1 MOL      0.306638
     41 N4         -0.2810    4.7830   -1.1250 n         1 MOL     -0.129816
     42 C13        -1.1280    5.3650   -2.1510 c3        1 MOL      0.211290
     43 C14        -2.5490    5.6800   -1.5890 c         1 MOL      0.353158
     44 O6         -3.0300    6.8230   -1.6160 o         1 MOL     -0.542141
     45 C15        -1.0980    4.4930   -3.4420 c3        1 MOL     -0.407892
     46 C16        -1.3100    3.0410   -3.0690 c         1 MOL      0.832526
     47 O7         -0.3210    2.3170   -2.8620 o         1 MOL     -0.772048
     48 O8         -2.4520    2.6080   -2.8210 o         1 MOL     -0.772048
     49 H21        -0.6810    4.0840   -0.5040 hn        1 MOL      0.081947
     50 H22        -0.6550    6.3270   -2.3410 h1        1 MOL      0.034857
     51 H23        -0.1040    4.6070   -3.8780 hc        1 MOL      0.096282
     52 H24        -1.8860    4.6900   -4.1720 hc        1 MOL      0.096282
     53 N5         -3.1310    4.7160   -0.9090 n         1 MOL     -0.256076
     54 C17        -4.2170    4.8930    0.0610 c3        1 MOL      0.174413
     55 C18        -5.4230    3.9320   -0.1140 c         1 MOL      0.324636
     56 O9         -6.5020    4.3390    0.2220 o         1 MOL     -0.525394
     57 H25        -2.7350    3.7790   -0.8510 hn        1 MOL      0.346266
     58 H26        -4.6770    5.8790   -0.0410 h1        1 MOL      0.026844
     59 H27        -3.8150    4.9770    1.0750 h1        1 MOL      0.026844
     60 N6         -5.1830    2.7900   -0.7040 n         1 MOL      0.003057
     61 C19        -6.1810    1.7420   -0.9160 c3        1 MOL     -0.027917
     62 C20        -6.1610    0.6680    0.1840 c         1 MOL      0.325714
     63 O10        -7.0310   -0.2150    0.1690 o         1 MOL     -0.462618
     64 C21        -6.0000    1.2220   -2.3310 c3        1 MOL     -0.201250
     65 C22        -5.1510   -0.0360   -2.4600 c         1 MOL      0.523795
     66 N7         -5.7510   -1.0700   -3.0120 n         1 MOL     -0.740510
     67 O11        -4.0610   -0.0710   -1.9390 o         1 MOL     -0.512209
     68 H28        -4.2210    2.6390   -0.9660 hn        1 MOL     -0.076668
     69 H29        -7.1930    2.1300   -0.9080 h1        1 MOL      0.125952
     70 H30        -5.5260    1.9890   -2.9550 hc        1 MOL      0.101897
     71 H31        -6.9540    1.1450   -2.8450 hc        1 MOL      0.101897
     72 H32        -6.6880   -0.9770   -3.3780 hn        1 MOL      0.377791
     73 H33        -5.2720   -1.9640   -3.0180 hn        1 MOL      0.377791
     74 N8         -5.1920    0.6720    1.1260 n         1 MOL     -0.049929
     75 C23        -5.1900   -0.0900    2.3990 c3        1 MOL     -0.466433
     76 C24        -4.7050   -1.5640    2.2570 c         1 MOL      0.610705
     77 O12        -4.9020   -2.3320    3.1720 o         1 MOL     -0.557732
     78 H34        -4.3860    1.2460    0.9300 hn        1 MOL      0.091826
     79 H35        -6.1980   -0.0820    2.7950 h1        1 MOL      0.199192
     80 H36        -4.5120    0.3430    3.1310 h1        1 MOL      0.199192
     81 N9         -4.0800   -1.8810    1.0960 n         1 MOL     -0.338294
     82 C25        -3.3930   -3.1030    0.6930 c3        1 MOL      0.362215
     83 C26        -1.8970   -2.6610    0.5950 c         1 MOL      0.263442
     84 O13        -1.4110   -2.0760   -0.3460 o         1 MOL     -0.552463
     85 C27        -4.0140   -3.7550   -0.5410 c3        1 MOL     -0.036782
     86 C28        -5.3510   -4.5110   -0.2780 ca        1 MOL     -0.072133
     87 C29        -6.5610   -3.7950   -0.3830 ca        1 MOL     -0.064510
     88 C30        -5.3580   -5.9130   -0.0620 ca        1 MOL     -0.064510
     89 C31        -7.7780   -4.4560   -0.2070 ca        1 MOL     -0.354057
     90 C32        -6.5790   -6.5780    0.0380 ca        1 MOL     -0.354057
     91 C33        -7.8160   -5.8400    0.0110 ca        1 MOL      0.454323
     92 O14        -8.9490   -6.5400    0.0930 oh        1 MOL     -0.488363
     93 H37        -3.9960   -1.0740    0.4930 hn        1 MOL      0.280775
     94 H38        -3.4950   -3.8860    1.4380 h1        1 MOL     -0.014329
     95 H39        -3.2580   -4.4540   -0.8820 hc        1 MOL     -0.008230
     96 H40        -4.1420   -2.9620   -1.2730 hc        1 MOL     -0.008230
     97 H41        -6.5250   -2.7570   -0.6730 ha        1 MOL      0.103416
     98 H42        -4.4400   -6.4810   -0.0770 ha        1 MOL      0.103416
     99 H43        -8.6210   -3.7790   -0.2430 ha        1 MOL      0.166979
    100 H44        -6.5660   -7.6540   -0.0140 ha        1 MOL      0.166979
    101 H45        -8.7790   -7.4850    0.0930 ho        1 MOL      0.351676
    102 N10        -1.1510   -3.1150    1.6160 n         1 MOL     -0.360604
    103 C34         0.2740   -2.9290    1.7690 c3        1 MOL      0.004674
    104 C35         1.2390   -4.0050    1.0430 c         1 MOL      0.506680
    105 O15         1.4310   -5.1150    1.5060 o         1 MOL     -0.530024
    106 C36         0.7060   -2.7660    3.2700 c3        1 MOL     -0.065442
    107 C37         0.0140   -1.5160    3.7830 c3        1 MOL      0.210231
    108 C38         2.2330   -2.5590    3.3890 c3        1 MOL     -0.172113
    109 C39         0.3150   -1.1680    5.2030 c3        1 MOL     -0.289597
    110 H46        -1.6530   -3.5950    2.3440 hn        1 MOL      0.256959
    111 H47         0.5430   -1.9670    1.3220 h1        1 MOL      0.121239
    112 H48         0.4710   -3.6370    3.8860 hc        1 MOL      0.053121
    113 H49        -1.0790   -1.5870    3.6940 hc        1 MOL     -0.009405
    114 H50         0.2430   -0.6580    3.1510 hc        1 MOL     -0.009405
    115 H51         2.8180   -3.3870    3.0070 hc        1 MOL      0.053107
    116 H52         2.4920   -1.6680    2.8030 hc        1 MOL      0.053107
    117 H53         2.5370   -2.5590    4.4380 hc        1 MOL      0.053107
    118 H54         1.2510   -0.6040    5.2890 hc        1 MOL      0.061093
    119 H55        -0.5670   -0.7170    5.6590 hc        1 MOL      0.061093
    120 H56         0.5040   -2.1180    5.6930 hc        1 MOL      0.061093
    121 N11         1.6290   -3.6810   -0.2090 n         1 MOL     -0.232509
    122 C40         2.6300   -4.4870   -1.0020 c3        1 MOL     -0.297944
    123 C41         4.1180   -4.2250   -0.5930 c         1 MOL      0.526104
    124 O16         4.5450   -3.3100    0.0970 o         1 MOL     -0.315118
    125 C42         2.4110   -4.1430   -2.4850 c3        1 MOL      0.181207
    126 O17         2.6850   -2.7830   -2.6830 oh        1 MOL     -0.556995
    127 H57         1.3370   -2.8130   -0.6230 hn        1 MOL      0.306733
    128 H58         2.4720   -5.5310   -0.7340 h1        1 MOL      0.128329
    129 H59         1.4350   -4.4230   -2.8650 h1        1 MOL      0.034984
    130 H60         3.1040   -4.7730   -3.0380 h1        1 MOL      0.034984
    131 H61         1.9530   -2.2840   -2.2970 ho        1 MOL      0.338140
    132 N12         5.0030   -5.1680   -1.0360 n         1 MOL     -0.491639
    133 C43         6.5140   -5.0700   -0.8510 c3        1 MOL      0.101364
    134 C44         7.1190   -3.6770   -1.2030 c         1 MOL      0.424195
    135 O18         8.1010   -3.2920   -0.5820 o         1 MOL     -0.518170
    136 C45         7.1970   -6.2460   -1.6010 c3        1 MOL     -0.292541
    137 H62         4.7060   -5.9310   -1.6250 hn        1 MOL      0.313682
    138 H63         6.6540   -5.1680    0.2310 h1        1 MOL      0.095244
    139 H64         6.6600   -7.1610   -1.3700 hc        1 MOL      0.095107
    140 H65         7.1310   -6.1800   -2.6900 hc        1 MOL      0.095107
    141 H66         8.2150   -6.3130   -1.2160 hc        1 MOL      0.095107
    142 N13         6.5830   -2.9620   -2.1590 n         1 MOL     -0.276547
    143 C46         7.0120   -1.5970   -2.5360 c3        1 MOL      0.001059
    144 C47         6.6610   -0.5920   -1.4650 c         1 MOL      0.484384
    145 O19         7.2690    0.4970   -1.4610 o         1 MOL     -0.571944
    146 C48         6.3700   -1.3030   -3.9110 c3        1 MOL     -0.245862
    147 H67         5.9090   -3.4100   -2.7600 hn        1 MOL      0.251832
    148 H68         8.1030   -1.6340   -2.6180 h1        1 MOL      0.100592
    149 H69         6.7770   -0.3960   -4.3690 hc        1 MOL      0.081490
    150 H70         6.5330   -2.1330   -4.5980 hc        1 MOL      0.081490
    151 H71         5.3260   -1.0050   -3.7850 hc        1 MOL      0.081490
    152 N14         5.7220   -0.9000   -0.6350 n         1 MOL     -0.189376
    153 C49         5.2050    0.0250    0.3980 c3        1 MOL     -0.050777
    154 C50         5.7070   -0.4210    1.7830 c         1 MOL      0.545452
    155 O20         5.9350    0.4370    2.6410 o         1 MOL     -0.543426
    156 C51         3.7020    0.0280    0.3950 c3        1 MOL      0.402755
    157 C52         3.0090    0.3240   -0.9310 c3        1 MOL      0.015612
    158 C53         1.5330    0.1190   -0.8960 c         1 MOL      0.621619
    159 O21         0.7940    0.9400   -0.3650 o         1 MOL     -0.703281
    160 O22         0.9470   -0.8450   -1.4350 o         1 MOL     -0.703281
    161 H72         5.2340   -1.7800   -0.6930 hn        1 MOL      0.069278
    162 H73         5.4120    1.0900    0.2590 h1        1 MOL     -0.024388
    163 H74         3.2590    0.7050    1.1240 hc        1 MOL     -0.123723
    164 H75         3.3410   -0.9250    0.7760 hc        1 MOL     -0.123723
    165 H76         3.3910   -0.4350   -1.6070 hc        1 MOL     -0.036111
    166 H77         3.2870    1.3110   -1.2790 hc        1 MOL     -0.036111
    167 N15         5.8400   -1.7500    1.9900 n         1 MOL     -0.282109
    168 C54         6.2590   -2.3030    3.2800 c3        1 MOL     -0.262376
    169 H78         7.2060   -1.8540    3.5770 h1        1 MOL      0.114311
    170 H79         5.5010   -2.0840    4.0320 h1        1 MOL      0.114311
    171 H80         6.3810   -3.3830    3.1900 h1        1 MOL      0.114311
    172 H81         5.4520   -2.3630    1.2910 hn        1 MOL      0.188680
    173 Ca1        -1.3770    0.3170   -1.6430 Ca        1 MOL      1.803122
    174 O23        -2.2740    0.2080   -4.3780 oh        1 MOL     -0.818430
    175 H82        -1.8870    0.8390   -4.9820 ho        1 MOL      0.401596
    176 H83        -3.2140    0.2480   -4.5510 ho        1 MOL      0.401596
    177 O24        -1.1580   -2.1240   -3.0610 oh        1 MOL     -0.818430
    178 H84        -0.9600   -3.0500   -2.9020 ho        1 MOL      0.401596
    179 H85        -1.8850   -2.1290   -3.6730 ho        1 MOL      0.401596
@<TRIPOS>BOND
     1    1    2 1   
     2    1    4 1   
     3    1    5 1   
     4    1    6 1   
     5    2    3 2   
     6    2    7 1   
     7    7    8 1   
     8    7   15 1   
     9    8    9 1   
    10    8   11 1   
    11    8   16 1   
    12    9   10 2   
    13    9   19 1   
    14   11   12 1   
    15   11   17 1   
    16   11   18 1   
    17   12   13 1   
    18   12   14 1   
    19   19   20 1   
    20   19   28 1   
    21   20   21 1   
    22   20   23 1   
    23   20   29 1   
    24   21   22 2   
    25   21   41 1   
    26   23   24 1   
    27   23   30 1   
    28   23   31 1   
    29   24   25 1   
    30   24   32 1   
    31   24   33 1   
    32   25   26 1   
    33   25   34 1   
    34   25   35 1   
    35   26   27 1   
    36   26   36 1   
    37   26   37 1   
    38   27   38 1   
    39   27   39 1   
    40   27   40 1   
    41   41   42 1   
    42   41   49 1   
    43   42   43 1   
    44   42   45 1   
    45   42   50 1   
    46   43   44 2   
    47   43   53 1   
    48   45   46 1   
    49   45   51 1   
    50   45   52 1   
    51   46   47 1   
    52   46   48 1   
    53   53   54 1   
    54   53   57 1   
    55   54   55 1   
    56   54   58 1   
    57   54   59 1   
    58   55   56 2   
    59   55   60 1   
    60   60   61 1   
    61   60   68 1   
    62   61   62 1   
    63   61   64 1   
    64   61   69 1   
    65   62   63 2   
    66   62   74 1   
    67   64   65 1   
    68   64   70 1   
    69   64   71 1   
    70   65   66 1   
    71   65   67 2   
    72   66   72 1   
    73   66   73 1   
    74   74   75 1   
    75   74   78 1   
    76   75   76 1   
    77   75   79 1   
    78   75   80 1   
    79   76   77 2   
    80   76   81 1   
    81   81   82 1   
    82   81   93 1   
    83   82   83 1   
    84   82   85 1   
    85   82   94 1   
    86   83   84 2   
    87   83  102 1   
    88   85   86 1   
    89   85   95 1   
    90   85   96 1   
    91   86   87 ar  
    92   86   88 ar  
    93   87   89 ar  
    94   87   97 1   
    95   88   90 ar  
    96   88   98 1   
    97   89   91 ar  
    98   89   99 1   
    99   90   91 ar  
   100   90  100 1   
   101   91   92 1   
   102   92  101 1   
   103  102  103 1   
   104  102  110 1   
   105  103  104 1   
   106  103  106 1   
   107  103  111 1   
   108  104  105 2   
   109  104  121 1   
   110  106  107 1   
   111  106  108 1   
   112  106  112 1   
   113  107  109 1   
   114  107  113 1   
   115  107  114 1   
   116  108  115 1   
   117  108  116 1   
   118  108  117 1   
   119  109  118 1   
   120  109  119 1   
   121  109  120 1   
   122  121  122 1   
   123  121  127 1   
   124  122  123 1   
   125  122  125 1   
   126  122  128 1   
   127  123  124 2   
   128  123  132 1   
   129  125  126 1   
   130  125  129 1   
   131  125  130 1   
   132  126  131 1   
   133  132  133 1   
   134  132  137 1   
   135  133  134 1   
   136  133  136 1   
   137  133  138 1   
   138  134  135 2   
   139  134  142 1   
   140  136  139 1   
   141  136  140 1   
   142  136  141 1   
   143  142  143 1   
   144  142  147 1   
   145  143  144 1   
   146  143  146 1   
   147  143  148 1   
   148  144  145 2   
   149  144  152 1   
   150  146  149 1   
   151  146  150 1   
   152  146  151 1   
   153  152  153 1   
   154  152  161 1   
   155  153  154 1   
   156  153  156 1   
   157  153  162 1   
   158  154  155 2   
   159  154  167 1   
   160  156  157 1   
   161  156  163 1   
   162  156  164 1   
   163  157  158 1   
   164  157  165 1   
   165  157  166 1   
   166  158  159 1   
   167  158  160 1   
   168  167  168 1   
   169  167  172 1   
   170  168  169 1   
   171  168  170 1   
   172  168  171 1   
   173  174  175 1   
   174  174  176 1   
   175  177  178 1   
   176  177  179 1   
@<TRIPOS>SUBSTRUCTURE
     1 MOL         1 TEMP              0 ****  ****    0 ROOT
