@<TRIPOS>MOLECULE
MOL
  175   173     1     0     0
SMALL
resp


@<TRIPOS>ATOM
      1 C1         -0.4730    4.2440    5.3240 c3        1 MOL     -0.207845
      2 C2         -0.7600    3.5890    3.9690 c         1 MOL      0.677428
      3 O1          0.0260    3.7340    3.0620 o         1 MOL     -0.575127
      4 H1         -0.7340    3.5510    6.1250 hc        1 MOL      0.047768
      5 H2          0.5860    4.4920    5.3910 hc        1 MOL      0.047768
      6 H3         -1.0660    5.1520    5.4240 hc        1 MOL      0.047768
      7 N1         -1.9830    3.0470    3.7630 n         1 MOL     -0.588333
      8 C3         -2.4830    2.4870    2.4700 c3        1 MOL      0.084682
      9 C4         -2.8930    3.6920    1.6090 c         1 MOL      0.524946
     10 O2         -4.0020    4.1790    1.8410 o         1 MOL     -0.563873
     11 C5         -3.5390    1.4400    2.8700 c3        1 MOL      0.004499
     12 C6         -3.9740    0.5190    1.7110 c         1 MOL      0.698059
     13 O3         -4.9680   -0.2720    1.8000 o         1 MOL     -0.763732
     14 O4         -3.4610    0.7770    0.5810 o         1 MOL     -0.763732
     15 H4         -2.5410    2.8840    4.5910 hn        1 MOL      0.295118
     16 H5         -1.6190    2.0520    1.9620 h1        1 MOL      0.036786
     17 H6         -4.3890    1.9340    3.3390 hc        1 MOL      0.005557
     18 H7         -3.1290    0.7220    3.5800 hc        1 MOL      0.005557
     19 N2         -2.0700    4.1380    0.6450 n         1 MOL     -0.212564
     20 C7         -2.2600    5.4540   -0.0100 c3        1 MOL      0.038748
     21 C8         -3.3380    5.2890   -1.0890 c         1 MOL      0.518539
     22 O5         -4.2060    6.1920   -1.2020 o         1 MOL     -0.593223
     23 C9         -0.9250    6.0110   -0.5380 c3        1 MOL     -0.296838
     24 H8         -1.2900    3.5740    0.3460 hn        1 MOL      0.270489
     25 H9         -2.5840    6.1820    0.7360 h1        1 MOL      0.076104
     26 H10        -0.1910    6.2080    0.2440 hc        1 MOL      0.082736
     27 H11        -0.4790    5.2730   -1.2080 hc        1 MOL      0.082736
     28 H12        -1.1390    6.8650   -1.1730 hc        1 MOL      0.082736
     29 N3         -3.5350    4.1120   -1.7010 n         1 MOL     -0.363582
     30 C10        -4.7320    3.8110   -2.5450 c3        1 MOL      0.026221
     31 C11        -5.9030    3.1070   -1.8150 c         1 MOL      0.416487
     32 O6         -6.9420    3.0500   -2.4170 o         1 MOL     -0.566141
     33 C12        -4.4810    3.0700   -3.8820 c3        1 MOL     -0.191460
     34 C13        -3.6950    1.7420   -3.7180 c         1 MOL      0.769586
     35 O7         -3.4750    1.2590   -2.5740 o         1 MOL     -0.721029
     36 O8         -3.1470    1.2150   -4.6770 o         1 MOL     -0.721029
     37 H13        -2.9120    3.3320   -1.5070 hn        1 MOL      0.250087
     38 H14        -5.0870    4.7500   -2.9810 h1        1 MOL      0.106833
     39 H15        -3.8970    3.6950   -4.5640 hc        1 MOL      0.055689
     40 H16        -5.3560    2.8170   -4.4750 hc        1 MOL      0.055689
     41 N4         -5.7770    2.6660   -0.5840 n         1 MOL      0.047014
     42 C14        -6.8850    2.1330    0.2460 c3        1 MOL     -0.267257
     43 C15        -7.4160    0.7700   -0.1490 c         1 MOL      0.573691
     44 O9         -8.5610    0.4450    0.1700 o         1 MOL     -0.585732
     45 H17        -4.8810    2.7050   -0.1060 hn        1 MOL     -0.003587
     46 H18        -7.6960    2.8610    0.2490 h1        1 MOL      0.137359
     47 H19        -6.5260    2.0340    1.2780 h1        1 MOL      0.137359
     48 N5         -6.6260   -0.0960   -0.9070 n         1 MOL     -0.302659
     49 C16        -7.1000   -1.4480   -1.4320 c3        1 MOL      0.009554
     50 C17        -7.0510   -2.6550   -0.4270 c         1 MOL      0.415490
     51 O10        -7.3370   -3.8310   -0.8730 o         1 MOL     -0.554960
     52 C18        -6.2460   -1.6440   -2.7040 c3        1 MOL     -0.266188
     53 C19        -5.0350   -2.4320   -2.4380 c         1 MOL      0.652140
     54 N6         -4.9010   -3.5700   -3.0860 n         1 MOL     -0.721664
     55 O11        -4.2230   -2.0490   -1.5910 o         1 MOL     -0.657656
     56 H20        -5.7390    0.2280   -1.2790 hn        1 MOL      0.187924
     57 H21        -8.1420   -1.3720   -1.7560 h1        1 MOL      0.119842
     58 H22        -5.9060   -0.6760   -3.0610 hc        1 MOL      0.096535
     59 H23        -6.8840   -2.2620   -3.3340 hc        1 MOL      0.096535
     60 H24        -5.6360   -3.8240   -3.7340 hn        1 MOL      0.360792
     61 H25        -4.0850   -4.1090   -2.8450 hn        1 MOL      0.360792
     62 N7         -6.6300   -2.4630    0.8260 n         1 MOL     -0.263292
     63 C20        -6.5400   -3.5300    1.8550 c3        1 MOL     -0.251713
     64 C21        -5.1520   -4.0370    2.2890 c         1 MOL      0.547132
     65 O12        -5.1560   -4.9610    3.1420 o         1 MOL     -0.577002
     66 H26        -6.1930   -1.5960    1.1130 hn        1 MOL      0.346934
     67 H27        -7.1810   -4.3430    1.5050 h1        1 MOL      0.130752
     68 H28        -6.9080   -3.0690    2.7690 h1        1 MOL      0.130752
     69 N8         -4.0620   -3.6370    1.6070 n         1 MOL     -0.213151
     70 C22        -2.6820   -4.1420    1.7720 c3        1 MOL     -0.349889
     71 C23        -1.6340   -2.9690    1.6700 c         1 MOL      0.730541
     72 O13        -1.9460   -2.0310    1.0450 o         1 MOL     -0.547398
     73 C24        -2.3920   -5.2860    0.7740 c3        1 MOL      0.575480
     74 C25        -3.0510   -6.6330    1.0200 c3        1 MOL     -0.399640
     75 O14        -2.6470   -4.9570   -0.5360 oh        1 MOL     -0.682225
     76 H29        -4.2280   -2.8750    0.9760 hn        1 MOL      0.249000
     77 H30        -2.6970   -4.5640    2.7780 h1        1 MOL      0.110155
     78 H31        -1.3370   -5.5560    0.8510 h1        1 MOL     -0.009452
     79 H32        -3.4670   -5.4070   -0.7620 ho        1 MOL      0.402315
     80 H33        -2.6760   -6.9920    1.9790 hc        1 MOL      0.096259
     81 H34        -4.1330   -6.5870    1.0080 hc        1 MOL      0.096259
     82 H35        -2.6810   -7.2880    0.2240 hc        1 MOL      0.096259
     83 N9         -0.3710   -3.1830    2.1910 n         1 MOL     -0.426849
     84 C26         0.6650   -2.3110    1.7640 c3        1 MOL     -0.046783
     85 C27         1.6700   -2.9520    0.8130 c         1 MOL      0.423705
     86 O15         2.1590   -4.0560    1.0580 o         1 MOL     -0.548825
     87 C28         1.2970   -1.6090    2.9880 c3        1 MOL      0.190877
     88 C29         2.0570   -2.5760    3.9920 c3        1 MOL      0.064638
     89 C30         0.2150   -0.8290    3.7600 c3        1 MOL     -0.109098
     90 C31         2.7150   -1.8490    5.1530 c3        1 MOL     -0.115501
     91 H36        -0.1930   -4.0390    2.6990 hn        1 MOL      0.247171
     92 H37         0.1820   -1.4900    1.2310 h1        1 MOL      0.045902
     93 H38         2.0160   -0.8360    2.7140 hc        1 MOL     -0.115085
     94 H39         2.7860   -3.1650    3.4320 hc        1 MOL     -0.014275
     95 H40         1.2710   -3.2080    4.3860 hc        1 MOL     -0.014275
     96 H41        -0.4100   -1.6030    4.2040 hc        1 MOL      0.006362
     97 H42         0.6600   -0.1970    4.5360 hc        1 MOL      0.006362
     98 H43        -0.3990   -0.2260    3.0900 hc        1 MOL      0.006362
     99 H44         3.2530   -2.6110    5.7050 hc        1 MOL      0.018824
    100 H45         3.3520   -1.0310    4.8110 hc        1 MOL      0.018824
    101 H46         1.9610   -1.4410    5.8300 hc        1 MOL      0.018824
    102 N10         1.9360   -2.1090   -0.2100 n         1 MOL     -0.218700
    103 C32         3.0310   -2.2600   -1.2000 c3        1 MOL      0.114705
    104 C33         4.3270   -1.4880   -0.7280 c         1 MOL      0.529679
    105 O16         4.3890   -0.8760    0.3570 o         1 MOL     -0.514117
    106 C34         2.5580   -1.8480   -2.6230 c3        1 MOL     -0.343636
    107 C35         3.3310   -2.1270   -3.8520 c         1 MOL      0.764195
    108 O17         3.0700   -1.6520   -4.9770 o         1 MOL     -0.714597
    109 O18         4.2340   -3.0120   -3.7980 o         1 MOL     -0.714597
    110 H47         1.4850   -1.2110   -0.2050 hn        1 MOL      0.216256
    111 H48         3.2370   -3.3240   -1.1560 h1        1 MOL      0.048145
    112 H49         2.4000   -0.7710   -2.5250 hc        1 MOL      0.094891
    113 H50         1.5880   -2.3010   -2.8300 hc        1 MOL      0.094891
    114 N11         5.4050   -1.4470   -1.5570 n         1 MOL     -0.631222
    115 C36         6.7420   -1.1660   -1.0290 c3        1 MOL      0.542444
    116 C37         6.9870    0.2530   -0.5250 c         1 MOL      0.204744
    117 O19         7.5530    0.4450    0.5920 o         1 MOL     -0.493451
    118 C38         7.8490   -1.7140   -1.9880 c3        1 MOL     -0.300277
    119 C39         9.2420   -1.5320   -1.3860 ca        1 MOL      0.017342
    120 C40         9.5590   -2.0860   -0.1760 ca        1 MOL     -0.066698
    121 C41        10.2200   -0.7920   -2.0960 ca        1 MOL     -0.066698
    122 C42        10.8560   -2.0240    0.3410 ca        1 MOL     -0.185342
    123 C43        11.4970   -0.6340   -1.5560 ca        1 MOL     -0.185342
    124 C44        11.8040   -1.1510   -0.2930 ca        1 MOL     -0.058722
    125 H51         5.3690   -1.8770   -2.4690 hn        1 MOL      0.244219
    126 H52         6.7680   -1.8410   -0.1700 h1        1 MOL      0.019399
    127 H53         7.8410   -1.2700   -2.9860 hc        1 MOL      0.109794
    128 H54         7.6280   -2.7500   -2.2530 hc        1 MOL      0.109794
    129 H55         8.8220   -2.6380    0.3960 ha        1 MOL      0.085009
    130 H56         9.9230   -0.3760   -3.0460 ha        1 MOL      0.085009
    131 H57        11.0100   -2.5220    1.2860 ha        1 MOL      0.119559
    132 H58        12.2550   -0.0910   -2.1040 ha        1 MOL      0.119559
    133 H59        12.7520   -0.9870    0.1970 ha        1 MOL      0.088073
    134 N12         6.5890    1.2720   -1.3250 n         1 MOL      0.009436
    135 C45         6.6040    2.6490   -0.8870 c3        1 MOL     -0.051715
    136 C46         5.6250    2.9490    0.3160 c         1 MOL      0.210435
    137 O20         5.8450    3.8710    1.1400 o         1 MOL     -0.478718
    138 C47         6.3630    3.5020   -2.1380 c3        1 MOL     -0.071466
    139 C48         6.7180    2.5960   -3.2480 c3        1 MOL      0.004381
    140 C49         6.1630    1.1960   -2.6990 c3        1 MOL     -0.074334
    141 H60         7.6300    2.8250   -0.5500 h1        1 MOL      0.105164
    142 H61         5.2970    3.7230   -2.2100 hc        1 MOL      0.049518
    143 H62         6.9810    4.3910   -2.2360 hc        1 MOL      0.049518
    144 H63         6.2910    2.9130   -4.2020 hc        1 MOL      0.021808
    145 H64         7.8050    2.5660   -3.2910 hc        1 MOL      0.021808
    146 H65         5.0910    1.0910   -2.5770 h1        1 MOL      0.041267
    147 H66         6.5740    0.3460   -3.2350 h1        1 MOL      0.041267
    148 N13         4.6680    2.0460    0.5940 n         1 MOL      0.022259
    149 C50         3.6880    2.2020    1.6350 c3        1 MOL     -0.244997
    150 C51         4.2430    1.6310    2.9410 c         1 MOL      0.468988
    151 O21         4.1620    2.2560    3.9900 o         1 MOL     -0.576498
    152 C52         2.3000    1.4720    1.2940 c3        1 MOL      0.155855
    153 C53         1.4550    2.2960    0.2570 c3        1 MOL     -0.304979
    154 C54         0.2690    1.4520   -0.2080 c         1 MOL      0.799498
    155 O22         0.3260    0.2030   -0.4100 o         1 MOL     -0.797817
    156 O23        -0.8780    1.9650   -0.4620 o         1 MOL     -0.797817
    157 H67         4.4920    1.3170   -0.0770 hn        1 MOL      0.180209
    158 H68         3.4690    3.2550    1.8240 h1        1 MOL      0.137893
    159 H69         1.5810    1.3560    2.1030 hc        1 MOL      0.064870
    160 H70         2.6210    0.5340    0.8460 hc        1 MOL      0.064870
    161 H71         2.1020    2.3940   -0.6190 hc        1 MOL      0.071414
    162 H72         1.1200    3.2610    0.6260 hc        1 MOL      0.071414
    163 N14         4.9560    0.5170    2.9420 n         1 MOL      0.021624
    164 C55         5.7640   -0.1080    3.9610 c3        1 MOL     -0.163806
    165 H73         5.2360   -0.9720    4.3640 h1        1 MOL      0.062255
    166 H74         6.7100   -0.4310    3.5280 h1        1 MOL      0.062255
    167 H75         5.9560    0.6060    4.7620 h1        1 MOL      0.062255
    168 H76         4.9820    0.0250    2.0600 hn        1 MOL      0.072789
    169 Ca1        -2.0180   -0.3500   -1.1330 Ca        1 MOL      1.821914
    170 O24        -1.4330   -0.7250   -3.6690 oh        1 MOL     -0.929342
    171 H77        -2.0190   -0.1060   -4.1140 ho        1 MOL      0.430223
    172 H78        -1.0980   -1.2730   -4.3790 ho        1 MOL      0.430223
    173 O25        -1.2290   -2.9440   -1.9690 oh        1 MOL     -0.929342
    174 H79        -0.9900   -3.3520   -2.8030 ho        1 MOL      0.430223
    175 H80        -1.6870   -3.6370   -1.4860 ho        1 MOL      0.430223
@<TRIPOS>BOND
     1    1    2 1   
     2    1    4 1   
     3    1    5 1   
     4    1    6 1   
     5    2    3 2   
     6    2    7 1   
     7    7    8 1   
     8    7   15 1   
     9    8    9 1   
    10    8   11 1   
    11    8   16 1   
    12    9   10 2   
    13    9   19 1   
    14   11   12 1   
    15   11   17 1   
    16   11   18 1   
    17   12   13 1   
    18   12   14 1   
    19   19   20 1   
    20   19   24 1   
    21   20   21 1   
    22   20   23 1   
    23   20   25 1   
    24   21   22 2   
    25   21   29 1   
    26   23   26 1   
    27   23   27 1   
    28   23   28 1   
    29   29   30 1   
    30   29   37 1   
    31   30   31 1   
    32   30   33 1   
    33   30   38 1   
    34   31   32 2   
    35   31   41 1   
    36   33   34 1   
    37   33   39 1   
    38   33   40 1   
    39   34   35 1   
    40   34   36 1   
    41   41   42 1   
    42   41   45 1   
    43   42   43 1   
    44   42   46 1   
    45   42   47 1   
    46   43   44 2   
    47   43   48 1   
    48   48   49 1   
    49   48   56 1   
    50   49   50 1   
    51   49   52 1   
    52   49   57 1   
    53   50   51 2   
    54   50   62 1   
    55   52   53 1   
    56   52   58 1   
    57   52   59 1   
    58   53   54 1   
    59   53   55 2   
    60   54   60 1   
    61   54   61 1   
    62   62   63 1   
    63   62   66 1   
    64   63   64 1   
    65   63   67 1   
    66   63   68 1   
    67   64   65 2   
    68   64   69 1   
    69   69   70 1   
    70   69   76 1   
    71   70   71 1   
    72   70   73 1   
    73   70   77 1   
    74   71   72 2   
    75   71   83 1   
    76   73   74 1   
    77   73   75 1   
    78   73   78 1   
    79   74   80 1   
    80   74   81 1   
    81   74   82 1   
    82   75   79 1   
    83   83   84 1   
    84   83   91 1   
    85   84   85 1   
    86   84   87 1   
    87   84   92 1   
    88   85   86 2   
    89   85  102 1   
    90   87   88 1   
    91   87   89 1   
    92   87   93 1   
    93   88   90 1   
    94   88   94 1   
    95   88   95 1   
    96   89   96 1   
    97   89   97 1   
    98   89   98 1   
    99   90   99 1   
   100   90  100 1   
   101   90  101 1   
   102  102  103 1   
   103  102  110 1   
   104  103  104 1   
   105  103  106 1   
   106  103  111 1   
   107  104  105 2   
   108  104  114 1   
   109  106  107 1   
   110  106  112 1   
   111  106  113 1   
   112  107  108 1   
   113  107  109 1   
   114  114  115 1   
   115  114  125 1   
   116  115  116 1   
   117  115  118 1   
   118  115  126 1   
   119  116  117 2   
   120  116  134 1   
   121  118  119 1   
   122  118  127 1   
   123  118  128 1   
   124  119  120 ar  
   125  119  121 ar  
   126  120  122 ar  
   127  120  129 1   
   128  121  123 ar  
   129  121  130 1   
   130  122  124 ar  
   131  122  131 1   
   132  123  124 ar  
   133  123  132 1   
   134  124  133 1   
   135  134  135 1   
   136  134  140 1   
   137  135  136 1   
   138  135  138 1   
   139  135  141 1   
   140  136  137 2   
   141  136  148 1   
   142  138  139 1   
   143  138  142 1   
   144  138  143 1   
   145  139  140 1   
   146  139  144 1   
   147  139  145 1   
   148  140  146 1   
   149  140  147 1   
   150  148  149 1   
   151  148  157 1   
   152  149  150 1   
   153  149  152 1   
   154  149  158 1   
   155  150  151 2   
   156  150  163 1   
   157  152  153 1   
   158  152  159 1   
   159  152  160 1   
   160  153  154 1   
   161  153  161 1   
   162  153  162 1   
   163  154  155 1   
   164  154  156 1   
   165  163  164 1   
   166  163  168 1   
   167  164  165 1   
   168  164  166 1   
   169  164  167 1   
   170  170  171 1   
   171  170  172 1   
   172  173  174 1   
   173  173  175 1   
@<TRIPOS>SUBSTRUCTURE
     1 MOL         1 TEMP              0 ****  ****    0 ROOT
