@<TRIPOS>MOLECULE
MOL
  189   185     1     0     0
SMALL
resp


@<TRIPOS>ATOM
      1 C1          0.5650    2.8660    5.2230 c3        1 MOL     -0.298060
      2 C2         -0.1630    2.6410    3.8890 c         1 MOL      0.695389
      3 O1          0.2260    3.0270    2.7960 o         1 MOL     -0.641339
      4 H1          0.5100    3.9200    5.4930 hc        1 MOL      0.078099
      5 H2          0.0920    2.2660    6.0000 hc        1 MOL      0.078099
      6 H3          1.6090    2.5720    5.1220 hc        1 MOL      0.078099
      7 N1         -1.2950    1.9480    3.8760 n         1 MOL     -0.581787
      8 C3         -2.0350    1.6850    2.6340 c3        1 MOL      0.159092
      9 C4         -2.6120    3.0010    2.1050 c         1 MOL      0.566525
     10 O2         -3.2590    3.7130    2.9170 o         1 MOL     -0.601606
     11 C5         -3.2160    0.6900    2.8950 c3        1 MOL     -0.211572
     12 C6         -3.9810    0.1450    1.6380 c         1 MOL      0.606511
     13 O3         -3.3960    0.3260    0.5830 o         1 MOL     -0.605390
     14 O4         -5.0050   -0.5170    1.7910 o         1 MOL     -0.605390
     15 H4         -1.6160    1.5390    4.7470 hn        1 MOL      0.319745
     16 H5         -1.4490    1.1960    1.8560 h1        1 MOL      0.059767
     17 H6         -3.8930    1.2110    3.5640 hc        1 MOL      0.047286
     18 H7         -2.8500   -0.1050    3.5560 hc        1 MOL      0.047286
     19 N2         -2.2710    3.3570    0.8600 n         1 MOL     -0.108916
     20 C7         -2.2810    4.7740    0.3630 c3        1 MOL     -0.040527
     21 C8         -3.3640    4.9050   -0.6730 c         1 MOL      0.391052
     22 O5         -4.1620    5.8490   -0.6720 o         1 MOL     -0.532706
     23 C9         -0.9280    5.1180   -0.2640 c3        1 MOL      0.135004
     24 C10        -0.6350    6.6220   -0.0100 c3        1 MOL      0.025428
     25 C11        -0.0630    6.9300    1.3850 c3        1 MOL     -0.043678
     26 C12         0.0390    8.5020    1.5910 c3        1 MOL      0.050437
     27 N3          0.7750    8.9380    2.7700 n4        1 MOL     -0.400695
     28 H8         -1.7670    2.6800    0.3000 hn        1 MOL      0.108612
     29 H9         -2.5550    5.4140    1.1960 h1        1 MOL      0.055137
     30 H10        -0.9210    4.9190   -1.3320 hc        1 MOL     -0.016989
     31 H11        -0.1200    4.5150    0.1630 hc        1 MOL     -0.016989
     32 H12        -1.5160    7.2410   -0.1890 hc        1 MOL     -0.012563
     33 H13         0.1280    6.8990   -0.7400 hc        1 MOL     -0.012563
     34 H14         0.9320    6.5000    1.5010 hc        1 MOL      0.049030
     35 H15        -0.7260    6.4500    2.1100 hc        1 MOL      0.049030
     36 H16        -0.9160    9.0190    1.5710 hx        1 MOL      0.080963
     37 H17         0.4350    8.8510    0.6320 hx        1 MOL      0.080963
     38 H18         1.7380    8.6520    2.8100 hn        1 MOL      0.337395
     39 H19         0.8600    9.9380    2.8250 hn        1 MOL      0.337395
     40 H20         0.3860    8.5830    3.6390 hn        1 MOL      0.337395
     41 N4         -3.4980    3.8500   -1.5050 n         1 MOL     -0.242510
     42 C13        -4.5750    3.7630   -2.4810 c3        1 MOL     -0.048875
     43 C14        -5.7820    3.0630   -1.8790 c         1 MOL      0.501498
     44 O6         -6.8400    3.2080   -2.4220 o         1 MOL     -0.542398
     45 C15        -4.0930    3.1860   -3.8030 c3        1 MOL     -0.073672
     46 C16        -3.3960    1.8200   -3.7510 c         1 MOL      0.608550
     47 O7         -3.2350    1.3220   -2.6160 o         1 MOL     -0.643975
     48 O8         -2.9960    1.2560   -4.8350 o         1 MOL     -0.643975
     49 H21        -2.8080    3.1180   -1.3810 hn        1 MOL      0.183255
     50 H22        -4.9230    4.7280   -2.8290 h1        1 MOL      0.086206
     51 H23        -3.4000    3.8130   -4.3590 hc        1 MOL      0.033727
     52 H24        -4.9560    3.1030   -4.4710 hc        1 MOL      0.033727
     53 N5         -5.6500    2.3550   -0.7640 n         1 MOL     -0.122694
     54 C17        -6.8000    1.8440    0.0170 c3        1 MOL     -0.148386
     55 C18        -7.3440    0.4470   -0.5880 c         1 MOL      0.487725
     56 O9         -8.5290    0.3550   -0.7770 o         1 MOL     -0.563362
     57 H25        -4.7190    2.1890   -0.3960 hn        1 MOL      0.048329
     58 H26        -7.5460    2.6240   -0.1070 h1        1 MOL      0.098957
     59 H27        -6.5960    1.9100    1.0920 h1        1 MOL      0.098957
     60 N6         -6.4880   -0.4880   -0.9600 n         1 MOL     -0.046245
     61 C19        -6.8560   -1.7140   -1.6250 c3        1 MOL     -0.014014
     62 C20        -6.7810   -2.8790   -0.6420 c         1 MOL      0.355933
     63 O10        -7.1200   -3.9510   -1.0920 o         1 MOL     -0.514457
     64 C21        -6.0260   -2.0170   -2.8930 c3        1 MOL     -0.140290
     65 C22        -4.5310   -2.1610   -2.7580 c         1 MOL      0.778767
     66 O11        -3.8890   -2.4300   -3.8130 o         1 MOL     -0.693166
     67 O12        -3.9750   -2.0130   -1.6450 o         1 MOL     -0.693166
     68 H28        -5.5310   -0.4350   -0.6600 hn        1 MOL     -0.099472
     69 H29        -7.9030   -1.6400   -1.9080 h1        1 MOL      0.104626
     70 H30        -6.2740   -1.1690   -3.5300 hc        1 MOL      0.060645
     71 H31        -6.3340   -2.8880   -3.4650 hc        1 MOL      0.060645
     72 N7         -6.3960   -2.6890    0.6370 n         1 MOL     -0.135523
     73 C23        -6.3570   -3.8130    1.6150 c3        1 MOL     -0.303410
     74 C24        -5.0400   -4.5780    1.5500 c         1 MOL      0.690609
     75 O13        -4.8760   -5.6630    2.1180 o         1 MOL     -0.594162
     76 H32        -6.0840   -1.7600    0.9040 hn        1 MOL      0.180915
     77 H33        -7.1440   -4.5270    1.3760 h1        1 MOL      0.132975
     78 H34        -6.4500   -3.2810    2.5580 h1        1 MOL      0.132975
     79 N8         -3.9610   -4.0470    0.8700 n         1 MOL     -0.495049
     80 C25        -2.6400   -4.6400    0.7360 c3        1 MOL     -0.113227
     81 C26        -1.4780   -3.5810    0.9490 c         1 MOL      0.702435
     82 O14        -1.5560   -2.4720    0.5020 o         1 MOL     -0.624267
     83 C27        -2.3790   -5.3890   -0.5660 c3        1 MOL      0.440734
     84 C28        -2.8660   -6.8400   -0.5230 c3        1 MOL     -0.425915
     85 O15        -3.0620   -4.8240   -1.6820 oh        1 MOL     -0.535512
     86 H35        -4.1690   -3.3190    0.1970 hn        1 MOL      0.389169
     87 H36        -2.5150   -5.4240    1.4810 h1        1 MOL      0.106316
     88 H37        -1.3200   -5.3130   -0.8320 h1        1 MOL     -0.057526
     89 H38        -2.9620   -3.8700   -1.6120 ho        1 MOL      0.259783
     90 H39        -2.7680   -7.3330   -1.4850 hc        1 MOL      0.108377
     91 H40        -2.2530   -7.2940    0.2630 hc        1 MOL      0.108377
     92 H41        -3.8990   -6.9090   -0.1740 hc        1 MOL      0.108377
     93 N9         -0.4720   -3.9630    1.7130 n         1 MOL     -0.661867
     94 C29         0.6590   -3.1160    2.0830 c3        1 MOL      0.125364
     95 C30         1.8850   -3.6130    1.3260 c         1 MOL      0.482655
     96 O16         2.2820   -4.7840    1.3070 o         1 MOL     -0.566215
     97 C31         0.9130   -3.1720    3.6150 c3        1 MOL      0.048279
     98 C32        -0.2070   -2.2730    4.2330 c3        1 MOL      0.167299
     99 C33         2.3270   -2.9030    4.0260 c3        1 MOL     -0.268127
    100 C34        -0.3170   -2.2160    5.7790 c3        1 MOL     -0.177826
    101 H42        -0.5490   -4.8500    2.1860 hn        1 MOL      0.302257
    102 H43         0.4270   -2.0760    1.8680 h1        1 MOL      0.068510
    103 H44         0.7600   -4.1920    3.9720 hc        1 MOL      0.028042
    104 H45        -1.1810   -2.7160    4.0200 hc        1 MOL     -0.004999
    105 H46        -0.3150   -1.2540    3.8850 hc        1 MOL     -0.004999
    106 H47         2.8920   -3.7640    3.6880 hc        1 MOL      0.057391
    107 H48         2.5810   -1.9640    3.5380 hc        1 MOL      0.057391
    108 H49         2.4970   -2.8910    5.1020 hc        1 MOL      0.057391
    109 H50        -1.0250   -1.4590    6.1050 hc        1 MOL      0.029927
    110 H51        -0.6140   -3.2200    6.0780 hc        1 MOL      0.029927
    111 H52         0.6100   -1.9700    6.2920 hc        1 MOL      0.029927
    112 N10         2.5070   -2.7410    0.5530 n         1 MOL     -0.119703
    113 C35         3.7230   -3.0340   -0.2830 c3        1 MOL     -0.033825
    114 C36         4.9780   -2.5950    0.4770 c         1 MOL      0.357011
    115 O17         4.9050   -1.7620    1.4240 o         1 MOL     -0.405278
    116 C37         3.5690   -2.3860   -1.6930 c3        1 MOL      0.128019
    117 C38         2.3090   -2.6630   -2.4810 c3        1 MOL     -0.264735
    118 O18         3.5350   -1.0320   -1.5780 oh        1 MOL     -0.431565
    119 H53         2.1040   -1.8130    0.4890 hn        1 MOL      0.217848
    120 H54         3.8240   -4.1210   -0.3250 h1        1 MOL      0.083502
    121 H55         4.4490   -2.6060   -2.3030 h1        1 MOL      0.015426
    122 H56         3.0050   -0.6270   -2.2600 ho        1 MOL      0.361809
    123 H57         2.0730   -1.9520   -3.2690 hc        1 MOL      0.083228
    124 H58         2.4320   -3.6000   -3.0250 hc        1 MOL      0.083228
    125 H59         1.4390   -2.7040   -1.8290 hc        1 MOL      0.083228
    126 N11         6.1130   -3.1200    0.0200 n         1 MOL     -0.264457
    127 C39         7.4630   -2.7270    0.2530 c3        1 MOL     -0.064212
    128 C40         7.5750   -1.1520    0.0750 c         1 MOL      0.426302
    129 O19         8.1820   -0.4860    0.9170 o         1 MOL     -0.508342
    130 C41         8.4230   -3.3450   -0.7710 c3        1 MOL      0.263616
    131 C42         8.7690   -4.7280   -0.3100 c3        1 MOL     -0.356904
    132 O20         7.9280   -3.4650   -2.1100 oh        1 MOL     -0.682169
    133 H60         6.0010   -3.8270   -0.6840 hn        1 MOL      0.282747
    134 H61         7.7950   -2.8290    1.2860 h1        1 MOL      0.130444
    135 H62         9.3010   -2.7220   -0.9220 h1        1 MOL      0.059400
    136 H63         8.5570   -3.8890   -2.6990 ho        1 MOL      0.431100
    137 H64         8.0340   -5.2320    0.3110 hc        1 MOL      0.105630
    138 H65         8.8700   -5.4300   -1.1370 hc        1 MOL      0.105630
    139 H66         9.7250   -4.5860    0.1990 hc        1 MOL      0.105630
    140 N12         6.9320   -0.5760   -0.9250 n         1 MOL     -0.399626
    141 C43         6.8850    0.8470   -1.1910 c3        1 MOL      0.047146
    142 C44         6.0290    1.6520   -0.2100 c         1 MOL      0.308856
    143 O21         6.4040    2.8500    0.0260 o         1 MOL     -0.541545
    144 C45         6.5750    1.0650   -2.6520 c3        1 MOL     -0.035460
    145 C46         6.9050    2.5680   -2.9110 c3        1 MOL     -0.090383
    146 C47         7.0120    2.9030   -4.4210 c3        1 MOL     -0.160740
    147 C48         8.0050    2.0520   -5.3470 c3        1 MOL      0.022509
    148 N13         9.4270    2.2880   -5.0840 n4        1 MOL     -0.288699
    149 H67         6.4230   -1.2440   -1.4930 hn        1 MOL      0.242129
    150 H68         7.8790    1.2820   -1.0490 h1        1 MOL      0.101047
    151 H69         5.5040    0.8740   -2.7360 hc        1 MOL      0.028126
    152 H70         7.0910    0.3750   -3.3240 hc        1 MOL      0.028126
    153 H71         7.7690    2.9260   -2.3400 hc        1 MOL      0.068264
    154 H72         5.9690    2.9540   -2.5110 hc        1 MOL      0.068264
    155 H73         7.2540    3.9490   -4.6030 hc        1 MOL      0.091413
    156 H74         5.9960    2.8260   -4.8080 hc        1 MOL      0.091413
    157 H75         7.7540    2.1380   -6.4020 hx        1 MOL      0.084662
    158 H76         7.8470    1.0000   -5.0880 hx        1 MOL      0.084662
    159 H77         9.6810    1.8280   -4.2160 hn        1 MOL      0.289542
    160 H78         9.9780    1.8390   -5.8010 hn        1 MOL      0.289542
    161 H79         9.5930    3.2710   -4.9850 hn        1 MOL      0.289542
    162 N14         4.9020    1.1040    0.2470 n         1 MOL     -0.023625
    163 C49         3.9530    1.7050    1.2400 c3        1 MOL     -0.061499
    164 C50         4.4550    1.7070    2.6480 c         1 MOL      0.379864
    165 O22         4.1660    2.5940    3.4190 o         1 MOL     -0.544224
    166 C51         2.6430    0.9850    1.0700 c3        1 MOL      0.313398
    167 C52         1.6360    1.6740    0.0830 c3        1 MOL     -0.404614
    168 C53         0.3700    0.8480   -0.1030 c         1 MOL      0.795977
    169 O23         0.2790   -0.3900    0.0060 o         1 MOL     -0.704103
    170 O24        -0.6440    1.4390   -0.4980 o         1 MOL     -0.704103
    171 H80         4.7410    0.1650   -0.0860 hn        1 MOL      0.045016
    172 H81         3.8190    2.7490    0.9520 h1        1 MOL      0.102711
    173 H82         2.1570    0.9390    2.0380 hc        1 MOL     -0.087999
    174 H83         2.7630   -0.0540    0.7610 hc        1 MOL     -0.087999
    175 H84         2.0700    1.7530   -0.9110 hc        1 MOL      0.077864
    176 H85         1.3620    2.6450    0.4900 hc        1 MOL      0.077864
    177 N15         5.3880    0.8440    2.9360 n         1 MOL      0.016141
    178 C54         6.2140    0.8390    4.0720 c3        1 MOL     -0.348531
    179 H86         6.2280    1.8350    4.5140 h1        1 MOL      0.119793
    180 H87         5.8290    0.1250    4.8000 h1        1 MOL      0.119793
    181 H88         7.2270    0.5560    3.7850 h1        1 MOL      0.119793
    182 H89         5.3200    0.0380    2.3290 hn        1 MOL      0.146794
    183 Ca1        -1.9710   -0.4820   -1.3300 Ca        1 MOL      1.707780
    184 O25        -1.5480   -2.5160   -2.8130 oh        1 MOL     -0.867516
    185 H90        -1.0050   -3.1060   -3.3430 ho        1 MOL      0.409226
    186 H91        -2.4030   -2.5630   -3.2310 ho        1 MOL      0.409226
    187 O26        -0.4690    0.1430   -3.4340 oh        1 MOL     -0.867516
    188 H92        -0.0070   -0.2930   -4.1380 ho        1 MOL      0.409226
    189 H93        -0.5770    1.0430   -3.7370 ho        1 MOL      0.409226
@<TRIPOS>BOND
     1    1    2 1   
     2    1    4 1   
     3    1    5 1   
     4    1    6 1   
     5    2    3 2   
     6    2    7 1   
     7    7    8 1   
     8    7   15 1   
     9    8    9 1   
    10    8   11 1   
    11    8   16 1   
    12    9   10 2   
    13    9   19 1   
    14   11   12 1   
    15   11   17 1   
    16   11   18 1   
    17   12   13 1   
    18   12   14 1   
    19   19   20 1   
    20   19   28 1   
    21   20   21 1   
    22   20   23 1   
    23   20   29 1   
    24   21   22 2   
    25   21   41 1   
    26   23   24 1   
    27   23   30 1   
    28   23   31 1   
    29   24   25 1   
    30   24   32 1   
    31   24   33 1   
    32   25   26 1   
    33   25   34 1   
    34   25   35 1   
    35   26   27 1   
    36   26   36 1   
    37   26   37 1   
    38   27   38 1   
    39   27   39 1   
    40   27   40 1   
    41   41   42 1   
    42   41   49 1   
    43   42   43 1   
    44   42   45 1   
    45   42   50 1   
    46   43   44 2   
    47   43   53 1   
    48   45   46 1   
    49   45   51 1   
    50   45   52 1   
    51   46   47 1   
    52   46   48 1   
    53   53   54 1   
    54   53   57 1   
    55   54   55 1   
    56   54   58 1   
    57   54   59 1   
    58   55   56 2   
    59   55   60 1   
    60   60   61 1   
    61   60   68 1   
    62   61   62 1   
    63   61   64 1   
    64   61   69 1   
    65   62   63 2   
    66   62   72 1   
    67   64   65 1   
    68   64   70 1   
    69   64   71 1   
    70   65   66 1   
    71   65   67 1   
    72   72   73 1   
    73   72   76 1   
    74   73   74 1   
    75   73   77 1   
    76   73   78 1   
    77   74   75 2   
    78   74   79 1   
    79   79   80 1   
    80   79   86 1   
    81   80   81 1   
    82   80   83 1   
    83   80   87 1   
    84   81   82 2   
    85   81   93 1   
    86   83   84 1   
    87   83   85 1   
    88   83   88 1   
    89   84   90 1   
    90   84   91 1   
    91   84   92 1   
    92   85   89 1   
    93   93   94 1   
    94   93  101 1   
    95   94   95 1   
    96   94   97 1   
    97   94  102 1   
    98   95   96 2   
    99   95  112 1   
   100   97   98 1   
   101   97   99 1   
   102   97  103 1   
   103   98  100 1   
   104   98  104 1   
   105   98  105 1   
   106   99  106 1   
   107   99  107 1   
   108   99  108 1   
   109  100  109 1   
   110  100  110 1   
   111  100  111 1   
   112  112  113 1   
   113  112  119 1   
   114  113  114 1   
   115  113  116 1   
   116  113  120 1   
   117  114  115 2   
   118  114  126 1   
   119  116  117 1   
   120  116  118 1   
   121  116  121 1   
   122  117  123 1   
   123  117  124 1   
   124  117  125 1   
   125  118  122 1   
   126  126  127 1   
   127  126  133 1   
   128  127  128 1   
   129  127  130 1   
   130  127  134 1   
   131  128  129 2   
   132  128  140 1   
   133  130  131 1   
   134  130  132 1   
   135  130  135 1   
   136  131  137 1   
   137  131  138 1   
   138  131  139 1   
   139  132  136 1   
   140  140  141 1   
   141  140  149 1   
   142  141  142 1   
   143  141  144 1   
   144  141  150 1   
   145  142  143 2   
   146  142  162 1   
   147  144  145 1   
   148  144  151 1   
   149  144  152 1   
   150  145  146 1   
   151  145  153 1   
   152  145  154 1   
   153  146  147 1   
   154  146  155 1   
   155  146  156 1   
   156  147  148 1   
   157  147  157 1   
   158  147  158 1   
   159  148  159 1   
   160  148  160 1   
   161  148  161 1   
   162  162  163 1   
   163  162  171 1   
   164  163  164 1   
   165  163  166 1   
   166  163  172 1   
   167  164  165 2   
   168  164  177 1   
   169  166  167 1   
   170  166  173 1   
   171  166  174 1   
   172  167  168 1   
   173  167  175 1   
   174  167  176 1   
   175  168  169 1   
   176  168  170 1   
   177  177  178 1   
   178  177  182 1   
   179  178  179 1   
   180  178  180 1   
   181  178  181 1   
   182  184  185 1   
   183  184  186 1   
   184  187  188 1   
   185  187  189 1   
@<TRIPOS>SUBSTRUCTURE
     1 MOL         1 TEMP              0 ****  ****    0 ROOT
