@<TRIPOS>MOLECULE
MOL
  186   183     1     0     0
SMALL
resp


@<TRIPOS>ATOM
      1 C1         -1.2270    3.3910    6.0210 c3        1 MOL     -0.140144
      2 C2         -1.1520    2.9100    4.5370 c         1 MOL      0.753115
      3 O1         -0.0900    2.8520    3.9720 o         1 MOL     -0.588208
      4 H1         -1.7600    2.6490    6.6160 hc        1 MOL      0.037341
      5 H2         -0.2180    3.5160    6.4140 hc        1 MOL      0.037341
      6 H3         -1.7570    4.3420    6.0690 hc        1 MOL      0.037341
      7 N1         -2.2500    2.5060    3.8850 n         1 MOL     -0.771896
      8 C3         -2.3670    2.2760    2.4750 c3        1 MOL      0.245708
      9 C4         -2.2830    3.5780    1.6610 c         1 MOL      0.345151
     10 O2         -2.9090    4.5800    2.0000 o         1 MOL     -0.590415
     11 C5         -3.6400    1.3790    2.2110 c3        1 MOL     -0.145384
     12 C6         -3.5600    0.6320    0.9090 c         1 MOL      0.836197
     13 O3         -3.6520    1.2550   -0.2160 o         1 MOL     -0.738613
     14 O4         -3.4360   -0.6060    0.8670 o         1 MOL     -0.738613
     15 H4         -3.0540    2.4270    4.4910 hn        1 MOL      0.353969
     16 H5         -1.4700    1.7300    2.1630 h1        1 MOL      0.002142
     17 H6         -4.5470    1.9790    2.1690 hc        1 MOL      0.042157
     18 H7         -3.8540    0.6390    2.9680 hc        1 MOL      0.042157
     19 N2         -1.4960    3.5600    0.6240 n         1 MOL     -0.110947
     20 C7         -1.2220    4.6570   -0.2290 c3        1 MOL      0.087912
     21 C8         -1.9670    4.6730   -1.6120 c         1 MOL      0.490718
     22 O5         -1.7040    5.5590   -2.4420 o         1 MOL     -0.539407
     23 C9          0.2910    4.8870   -0.4340 c3        1 MOL      0.042495
     24 C10         1.2950    4.7770    0.6970 c3        1 MOL      0.043942
     25 C11         1.1590    5.8530    1.7630 c3        1 MOL     -0.088536
     26 C12        -0.0620    5.6840    2.6560 c3        1 MOL      0.136060
     27 N3         -0.2330    6.6850    3.6610 n4        1 MOL     -0.565379
     28 H8         -1.0980    2.6650    0.3980 hn        1 MOL      0.221736
     29 H9         -1.5220    5.6110    0.2120 h1        1 MOL     -0.008576
     30 H10         0.4190    5.8530   -0.9140 hc        1 MOL     -0.012404
     31 H11         0.5960    4.1420   -1.1560 hc        1 MOL     -0.012404
     32 H12         2.3450    4.7920    0.4160 hc        1 MOL      0.017175
     33 H13         1.1940    3.8140    1.1960 hc        1 MOL      0.017175
     34 H14         1.1270    6.8270    1.2870 hc        1 MOL      0.022190
     35 H15         2.0100    5.7160    2.4270 hc        1 MOL      0.022190
     36 H16         0.0190    4.6960    3.1050 hx        1 MOL      0.111459
     37 H17        -0.9600    5.8710    2.0560 hx        1 MOL      0.111459
     38 H18        -1.1130    6.5070    4.1280 hn        1 MOL      0.352259
     39 H19         0.4900    6.7150    4.3740 hn        1 MOL      0.352259
     40 H20        -0.2500    7.6480    3.3800 hn        1 MOL      0.352259
     41 N4         -2.7740    3.6230   -1.9300 n         1 MOL     -0.447813
     42 C13        -3.4820    3.4540   -3.2180 c3        1 MOL      0.264011
     43 C14        -5.0160    3.0880   -3.1010 c         1 MOL      0.318275
     44 O6         -5.7480    3.3390   -4.0620 o         1 MOL     -0.486474
     45 C15        -2.7160    2.6070   -4.2760 c3        1 MOL     -0.406738
     46 C16        -2.3820    1.2080   -3.7820 c         1 MOL      0.900796
     47 O7         -1.2970    0.8600   -3.3220 o         1 MOL     -0.746894
     48 O8         -3.2930    0.4350   -3.4900 o         1 MOL     -0.746894
     49 H21        -2.8040    2.9860   -1.1460 hn        1 MOL      0.168343
     50 H22        -3.5110    4.4840   -3.5660 h1        1 MOL      0.052069
     51 H23        -1.7860    3.1360   -4.4390 hc        1 MOL      0.099413
     52 H24        -3.3400    2.6260   -5.1740 hc        1 MOL      0.099413
     53 N5         -5.3650    2.5510   -1.9380 n         1 MOL     -0.139379
     54 C17        -6.7330    2.2700   -1.5100 c3        1 MOL     -0.249538
     55 C18        -7.3820    0.9680   -1.8790 c         1 MOL      0.514970
     56 O9         -8.6220    0.8590   -2.0270 o         1 MOL     -0.561716
     57 H25        -4.7030    2.4390   -1.1820 hn        1 MOL      0.172194
     58 H26        -7.3110    3.1290   -1.8550 h1        1 MOL      0.113251
     59 H27        -6.6940    2.2220   -0.4220 h1        1 MOL      0.113251
     60 N6         -6.5360   -0.0520   -2.1190 n         1 MOL     -0.265563
     61 C19        -6.8890   -1.4890   -2.0830 c3        1 MOL      0.104012
     62 C20        -6.8370   -2.0380   -0.6430 c         1 MOL      0.408325
     63 O10        -7.3530   -3.0790   -0.3790 o         1 MOL     -0.513409
     64 C21        -6.0670   -2.3280   -3.0670 c3        1 MOL     -0.484596
     65 C22        -4.5670   -2.2290   -2.8000 c         1 MOL      0.875442
     66 O11        -4.1440   -2.0410   -1.6420 o         1 MOL     -0.708751
     67 O12        -3.7070   -2.5910   -3.6200 o         1 MOL     -0.708751
     68 H28        -5.5520    0.1570   -2.0630 hn        1 MOL      0.226237
     69 H29        -7.9530   -1.5290   -2.3120 h1        1 MOL      0.093866
     70 H30        -6.3850   -1.9200   -4.0240 hc        1 MOL      0.145904
     71 H31        -6.2960   -3.3880   -2.9380 hc        1 MOL      0.145904
     72 N7         -6.2540   -1.3500    0.3110 n         1 MOL     -0.251379
     73 C23        -6.2740   -1.8250    1.6960 c3        1 MOL     -0.224751
     74 C24        -5.3020   -3.0260    1.9280 c         1 MOL      0.562353
     75 O13        -5.5400   -3.7330    2.9530 o         1 MOL     -0.588694
     76 H32        -5.6140   -0.6140    0.0640 hn        1 MOL      0.165792
     77 H33        -7.2920   -2.1580    1.9220 h1        1 MOL      0.114490
     78 H34        -5.9770   -0.9330    2.2380 h1        1 MOL      0.114490
     79 N8         -4.2760   -3.1670    1.0660 n         1 MOL     -0.205878
     80 C25        -3.0730   -4.0890    1.2300 c3        1 MOL     -0.281171
     81 C26        -1.7440   -3.4370    1.0050 c         1 MOL      0.874056
     82 O14        -1.5480   -2.9210   -0.0100 o         1 MOL     -0.712831
     83 C27        -3.2680   -5.3460    0.3510 c3        1 MOL      0.401533
     84 C28        -4.1510   -6.3900    1.0510 c3        1 MOL     -0.330546
     85 O15        -3.9520   -5.1040   -0.8540 oh        1 MOL     -0.575602
     86 H35        -4.2920   -2.5160    0.2960 hn        1 MOL      0.273830
     87 H36        -3.0810   -4.5010    2.2430 h1        1 MOL      0.079237
     88 H37        -2.2670   -5.7570    0.1970 h1        1 MOL     -0.026461
     89 H38        -3.6320   -4.3520   -1.3580 ho        1 MOL      0.357915
     90 H39        -5.0810   -5.9720    1.4450 hc        1 MOL      0.086850
     91 H40        -4.2020   -7.3200    0.4840 hc        1 MOL      0.086850
     92 H41        -3.6300   -6.6260    1.9730 hc        1 MOL      0.086850
     93 N9         -0.9310   -3.6810    2.0360 n         1 MOL     -0.684688
     94 C29         0.2840   -2.8670    2.2560 c3        1 MOL      0.169221
     95 C30         1.4850   -3.5520    1.5650 c         1 MOL      0.427609
     96 O16         2.0450   -4.5180    2.0380 o         1 MOL     -0.529041
     97 C31         0.5370   -2.4420    3.7430 c3        1 MOL      0.057499
     98 C32        -0.7350   -2.0740    4.5350 c3        1 MOL     -0.317005
     99 C33         1.5920   -1.2540    3.7680 c3        1 MOL     -0.313196
    100 C34        -1.5240   -0.8180    4.0080 c3        1 MOL     -0.128250
    101 H42        -1.3090   -4.1260    2.8570 hn        1 MOL      0.357228
    102 H43         0.1110   -1.9630    1.6730 h1        1 MOL      0.090001
    103 H44         1.0730   -3.2410    4.2450 hc        1 MOL      0.015280
    104 H45        -0.5640   -1.9030    5.6040 hc        1 MOL      0.101030
    105 H46        -1.3800   -2.9530    4.5110 hc        1 MOL      0.101030
    106 H47         2.5130   -1.5010    3.2420 hc        1 MOL      0.109420
    107 H48         1.1760   -0.3320    3.3540 hc        1 MOL      0.109420
    108 H49         1.9250   -1.1370    4.7990 hc        1 MOL      0.109420
    109 H50        -1.7300   -0.9060    2.9330 hc        1 MOL      0.061352
    110 H51        -2.4870   -0.6910    4.4940 hc        1 MOL      0.061352
    111 H52        -0.9140    0.0620    4.2200 hc        1 MOL      0.061352
    112 N10         1.9110   -2.9030    0.4490 n         1 MOL     -0.024815
    113 C35         3.0730   -3.2280   -0.3110 c3        1 MOL     -0.186514
    114 C36         4.3240   -2.5120    0.2740 c         1 MOL      0.210495
    115 O17         4.2450   -1.5670    1.0360 o         1 MOL     -0.203676
    116 C37         3.0970   -3.0590   -1.8630 c3        1 MOL      0.433560
    117 C38         2.1140   -4.0280   -2.5460 c3        1 MOL     -0.495502
    118 O18         2.7990   -1.7550   -2.3710 oh        1 MOL     -0.608200
    119 H53         1.3130   -2.1330    0.1880 hn        1 MOL      0.064200
    120 H54         3.2820   -4.2790   -0.1140 h1        1 MOL      0.119847
    121 H55         4.0850   -3.1950   -2.3230 h1        1 MOL      0.014535
    122 H56         2.1470   -1.4490   -1.7320 ho        1 MOL      0.396662
    123 H57         2.3500   -5.0650   -2.3090 hc        1 MOL      0.130779
    124 H58         1.2000   -3.6830   -2.0480 hc        1 MOL      0.130779
    125 H59         2.1090   -3.8000   -3.6090 hc        1 MOL      0.130779
    126 N11         5.5780   -3.0440   -0.0180 n         1 MOL     -0.230709
    127 C39         6.8230   -2.5000    0.4830 c3        1 MOL     -0.062156
    128 C40         7.0740   -1.0560    0.2730 c         1 MOL      0.403984
    129 O19         7.6360   -0.4250    1.1740 o         1 MOL     -0.475508
    130 C41         7.9540   -3.1640   -0.3700 c3        1 MOL      0.282213
    131 C42         9.3980   -2.9310    0.0870 c3        1 MOL     -0.502891
    132 O20         7.7830   -4.5480   -0.2480 oh        1 MOL     -0.596346
    133 H60         5.5440   -3.7700   -0.7210 hn        1 MOL      0.192498
    134 H61         6.8960   -2.6890    1.5490 h1        1 MOL      0.171002
    135 H62         7.8290   -2.8980   -1.4160 h1        1 MOL      0.012278
    136 H63         8.4620   -5.0760   -0.6720 ho        1 MOL      0.410884
    137 H64         9.8430   -1.9410   -0.0220 hc        1 MOL      0.141739
    138 H65         9.4090   -3.3930    1.0690 hc        1 MOL      0.141739
    139 H66        10.1370   -3.5790   -0.3830 hc        1 MOL      0.141739
    140 N12         6.5770   -0.4210   -0.8370 n         1 MOL     -0.564139
    141 C43         6.5900    1.0870   -0.8980 c3        1 MOL      0.210877
    142 C44         5.5050    1.8410   -0.0970 c         1 MOL      0.239487
    143 O21         5.6890    3.0560    0.0360 o         1 MOL     -0.515534
    144 C45         6.8220    1.6820   -2.3310 c3        1 MOL      0.037621
    145 C46         8.0610    1.0930   -2.9820 c3        1 MOL     -0.231663
    146 C47         8.4210    1.7600   -4.3380 c3        1 MOL      0.006135
    147 C48         9.6750    1.1080   -4.9000 c3        1 MOL     -0.051478
    148 N13        10.2020    1.9360   -5.9740 n4        1 MOL     -0.273369
    149 H67         6.1660   -0.9010   -1.6310 hn        1 MOL      0.328621
    150 H68         7.4900    1.3960   -0.3690 h1        1 MOL      0.091315
    151 H69         6.8470    2.7730   -2.3350 hc        1 MOL      0.018227
    152 H70         5.9890    1.3810   -2.9710 hc        1 MOL      0.018227
    153 H71         7.7330    0.0660   -3.1260 hc        1 MOL      0.085772
    154 H72         8.8710    1.2800   -2.2720 hc        1 MOL      0.085772
    155 H73         8.6330    2.8140   -4.1760 hc        1 MOL      0.066215
    156 H74         7.6190    1.6090   -5.0540 hc        1 MOL      0.066215
    157 H75         9.3560    0.1600   -5.3440 hx        1 MOL      0.097096
    158 H76        10.5570    1.0690   -4.2680 hx        1 MOL      0.097096
    159 H77        11.1960    1.7260   -5.8960 hn        1 MOL      0.277215
    160 H78         9.8770    1.6570   -6.8870 hn        1 MOL      0.277215
    161 H79         9.9760    2.8920   -5.7720 hn        1 MOL      0.277215
    162 N14         4.6260    1.1260    0.5920 n         1 MOL     -0.021749
    163 C49         3.7160    1.6780    1.6030 c3        1 MOL     -0.173427
    164 C50         4.1210    1.2030    3.0180 c         1 MOL      0.458001
    165 O22         3.4670    1.5750    3.9480 o         1 MOL     -0.535456
    166 C51         2.2760    1.1340    1.3080 c3        1 MOL      0.038419
    167 C52         1.7230    1.3570   -0.1410 c3        1 MOL      0.133658
    168 C53         0.4410    0.5070   -0.3280 c         1 MOL      0.486235
    169 O23        -0.6750    1.1000   -0.1520 o         1 MOL     -0.639089
    170 O24         0.4800   -0.6990   -0.7280 o         1 MOL     -0.639089
    171 H80         4.5390    0.1260    0.4280 hn        1 MOL      0.067705
    172 H81         3.7500    2.7690    1.5430 h1        1 MOL      0.139995
    173 H82         1.5940    1.6280    2.0110 hc        1 MOL     -0.012524
    174 H83         2.2540    0.0750    1.5630 hc        1 MOL     -0.012524
    175 H84         2.5300    1.0190   -0.7840 hc        1 MOL     -0.031033
    176 H85         1.6000    2.3920   -0.4530 hc        1 MOL     -0.031033
    177 N15         5.0690    0.2920    3.1850 n         1 MOL     -0.168233
    178 C54         5.6260   -0.2410    4.4310 c3        1 MOL     -0.212932
    179 H86         4.9940   -1.0520    4.7930 h1        1 MOL      0.098898
    180 H87         6.6320   -0.6190    4.2470 h1        1 MOL      0.098898
    181 H88         5.6640    0.5500    5.1790 h1        1 MOL      0.098898
    182 H89         5.3720   -0.1590    2.3290 hn        1 MOL      0.132628
    183 Ca1        -2.0500   -0.6920   -1.3670 Ca        1 MOL      1.715680
    184 O25        -1.1740   -2.3530   -3.6190 oh        1 MOL     -0.840087
    185 H90        -0.8570   -3.2650   -3.6220 ho        1 MOL      0.391261
    186 H91        -2.0860   -2.4190   -3.9030 ho        1 MOL      0.391261
@<TRIPOS>BOND
     1    1    2 1   
     2    1    4 1   
     3    1    5 1   
     4    1    6 1   
     5    2    3 2   
     6    2    7 1   
     7    7    8 1   
     8    7   15 1   
     9    8    9 1   
    10    8   11 1   
    11    8   16 1   
    12    9   10 2   
    13    9   19 1   
    14   11   12 1   
    15   11   17 1   
    16   11   18 1   
    17   12   13 1   
    18   12   14 1   
    19   19   20 1   
    20   19   28 1   
    21   20   21 1   
    22   20   23 1   
    23   20   29 1   
    24   21   22 2   
    25   21   41 1   
    26   23   24 1   
    27   23   30 1   
    28   23   31 1   
    29   24   25 1   
    30   24   32 1   
    31   24   33 1   
    32   25   26 1   
    33   25   34 1   
    34   25   35 1   
    35   26   27 1   
    36   26   36 1   
    37   26   37 1   
    38   27   38 1   
    39   27   39 1   
    40   27   40 1   
    41   41   42 1   
    42   41   49 1   
    43   42   43 1   
    44   42   45 1   
    45   42   50 1   
    46   43   44 2   
    47   43   53 1   
    48   45   46 1   
    49   45   51 1   
    50   45   52 1   
    51   46   47 1   
    52   46   48 1   
    53   53   54 1   
    54   53   57 1   
    55   54   55 1   
    56   54   58 1   
    57   54   59 1   
    58   55   56 2   
    59   55   60 1   
    60   60   61 1   
    61   60   68 1   
    62   61   62 1   
    63   61   64 1   
    64   61   69 1   
    65   62   63 2   
    66   62   72 1   
    67   64   65 1   
    68   64   70 1   
    69   64   71 1   
    70   65   66 1   
    71   65   67 1   
    72   72   73 1   
    73   72   76 1   
    74   73   74 1   
    75   73   77 1   
    76   73   78 1   
    77   74   75 2   
    78   74   79 1   
    79   79   80 1   
    80   79   86 1   
    81   80   81 1   
    82   80   83 1   
    83   80   87 1   
    84   81   82 2   
    85   81   93 1   
    86   83   84 1   
    87   83   85 1   
    88   83   88 1   
    89   84   90 1   
    90   84   91 1   
    91   84   92 1   
    92   85   89 1   
    93   93   94 1   
    94   93  101 1   
    95   94   95 1   
    96   94   97 1   
    97   94  102 1   
    98   95   96 2   
    99   95  112 1   
   100   97   98 1   
   101   97   99 1   
   102   97  103 1   
   103   98  100 1   
   104   98  104 1   
   105   98  105 1   
   106   99  106 1   
   107   99  107 1   
   108   99  108 1   
   109  100  109 1   
   110  100  110 1   
   111  100  111 1   
   112  112  113 1   
   113  112  119 1   
   114  113  114 1   
   115  113  116 1   
   116  113  120 1   
   117  114  115 2   
   118  114  126 1   
   119  116  117 1   
   120  116  118 1   
   121  116  121 1   
   122  117  123 1   
   123  117  124 1   
   124  117  125 1   
   125  118  122 1   
   126  126  127 1   
   127  126  133 1   
   128  127  128 1   
   129  127  130 1   
   130  127  134 1   
   131  128  129 2   
   132  128  140 1   
   133  130  131 1   
   134  130  132 1   
   135  130  135 1   
   136  131  137 1   
   137  131  138 1   
   138  131  139 1   
   139  132  136 1   
   140  140  141 1   
   141  140  149 1   
   142  141  142 1   
   143  141  144 1   
   144  141  150 1   
   145  142  143 2   
   146  142  162 1   
   147  144  145 1   
   148  144  151 1   
   149  144  152 1   
   150  145  146 1   
   151  145  153 1   
   152  145  154 1   
   153  146  147 1   
   154  146  155 1   
   155  146  156 1   
   156  147  148 1   
   157  147  157 1   
   158  147  158 1   
   159  148  159 1   
   160  148  160 1   
   161  148  161 1   
   162  162  163 1   
   163  162  171 1   
   164  163  164 1   
   165  163  166 1   
   166  163  172 1   
   167  164  165 2   
   168  164  177 1   
   169  166  167 1   
   170  166  173 1   
   171  166  174 1   
   172  167  168 1   
   173  167  175 1   
   174  167  176 1   
   175  168  169 1   
   176  168  170 1   
   177  177  178 1   
   178  177  182 1   
   179  178  179 1   
   180  178  180 1   
   181  178  181 1   
   182  184  185 1   
   183  184  186 1   
@<TRIPOS>SUBSTRUCTURE
     1 MOL         1 TEMP              0 ****  ****    0 ROOT
