@<TRIPOS>MOLECULE
MOL
  183   181     1     0     0
SMALL
resp


@<TRIPOS>ATOM
      1 C1         -0.6690    1.5800    6.5990 c3        1 MOL     -0.334917
      2 C2         -0.9840    1.6430    5.0940 c         1 MOL      0.751044
      3 O1         -0.2040    2.2730    4.3700 o         1 MOL     -0.570790
      4 H1          0.0600    0.7910    6.7840 hc        1 MOL      0.071729
      5 H2         -0.2600    2.5360    6.9260 hc        1 MOL      0.071729
      6 H3         -1.5830    1.3660    7.1540 hc        1 MOL      0.071729
      7 N1         -2.1150    1.0930    4.6170 n         1 MOL     -0.647653
      8 C3         -2.5830    1.3130    3.2090 c3        1 MOL      0.095303
      9 C4         -2.7710    2.8220    2.7610 c         1 MOL      0.598180
     10 O2         -3.2770    3.6550    3.5050 o         1 MOL     -0.565203
     11 C5         -3.8570    0.5160    3.0840 c3        1 MOL     -0.108270
     12 C6         -4.3680    0.3940    1.6150 c         1 MOL      0.833725
     13 O3         -5.5860    0.1510    1.4880 o         1 MOL     -0.689820
     14 O4         -3.5950    0.7440    0.6760 o         1 MOL     -0.689820
     15 H4         -2.7040    0.5940    5.2650 hn        1 MOL      0.332730
     16 H5         -1.8760    0.8690    2.5060 h1        1 MOL      0.014094
     17 H6         -4.5710    0.9960    3.7500 hc        1 MOL      0.007463
     18 H7         -3.7160   -0.4780    3.5270 hc        1 MOL      0.007463
     19 N2         -2.3490    3.1350    1.5370 n         1 MOL     -0.407298
     20 C7         -2.4500    4.5050    0.9740 c3        1 MOL     -0.000557
     21 C8         -3.7260    4.6550    0.2930 c         1 MOL      0.605581
     22 O5         -4.3970    5.6150    0.5300 o         1 MOL     -0.610190
     23 C9         -1.3150    4.9420   -0.0200 c3        1 MOL      0.262633
     24 C10        -0.0390    5.0870    0.7560 c3        1 MOL     -0.017023
     25 C11        -1.6860    6.2470   -0.7890 c3        1 MOL     -0.227672
     26 C12         1.1670    5.8530    0.1260 c3        1 MOL     -0.167742
     27 H8         -2.0280    2.3720    0.9690 hn        1 MOL      0.234874
     28 H9         -2.5510    5.1910    1.8140 h1        1 MOL      0.060451
     29 H10        -1.0840    4.1580   -0.7390 hc        1 MOL     -0.008120
     30 H11         0.2230    4.0380    0.9550 hc        1 MOL      0.000740
     31 H12        -0.3020    5.5650    1.6910 hc        1 MOL      0.000740
     32 H13        -0.8320    6.7980   -1.1770 hc        1 MOL      0.032290
     33 H14        -2.2190    5.9630   -1.6920 hc        1 MOL      0.032290
     34 H15        -2.2490    6.8670   -0.0890 hc        1 MOL      0.032290
     35 H16         2.0280    5.9270    0.7810 hc        1 MOL      0.043085
     36 H17         1.3610    5.5060   -0.8940 hc        1 MOL      0.043085
     37 H18         1.0110    6.9340    0.0920 hc        1 MOL      0.043085
     38 N3         -4.1630    3.6800   -0.4930 n         1 MOL     -0.401162
     39 C13        -5.2530    3.9130   -1.5240 c3        1 MOL     -0.039768
     40 C14        -6.5370    3.1500   -1.2370 c         1 MOL      0.418654
     41 O6         -7.5350    3.3540   -1.8970 o         1 MOL     -0.536798
     42 C15        -4.7720    3.5450   -2.9350 c3        1 MOL     -0.140535
     43 C16        -4.0440    2.2440   -3.1770 c         1 MOL      0.782140
     44 O7         -3.6430    2.1280   -4.3640 o         1 MOL     -0.728669
     45 O8         -3.8080    1.3630   -2.3330 o         1 MOL     -0.728669
     46 H19        -3.5960    2.8490   -0.4610 hn        1 MOL      0.196259
     47 H20        -5.3880    4.9780   -1.6690 h1        1 MOL      0.117265
     48 H21        -4.1630    4.3240   -3.3960 hc        1 MOL      0.045379
     49 H22        -5.6660    3.6170   -3.5570 hc        1 MOL      0.045379
     50 N4         -6.6080    2.3090   -0.1740 n         1 MOL     -0.164784
     51 C17        -7.8560    1.8570    0.4190 c3        1 MOL     -0.086932
     52 C18        -8.3320    0.4610   -0.0720 c         1 MOL      0.503750
     53 O9         -9.5220    0.2080   -0.2000 o         1 MOL     -0.584183
     54 H23        -5.7460    2.1510    0.3390 hn        1 MOL      0.184814
     55 H24        -8.6810    2.5560    0.3410 h1        1 MOL      0.066227
     56 H25        -7.7670    1.8220    1.5090 h1        1 MOL      0.066227
     57 N5         -7.3800   -0.3610   -0.6080 n         1 MOL     -0.219070
     58 C19        -7.5840   -1.8010   -1.0010 c3        1 MOL     -0.036918
     59 C20        -7.2890   -2.8420    0.0920 c         1 MOL      0.366982
     60 O10        -7.6600   -4.0360   -0.0570 o         1 MOL     -0.548011
     61 C21        -6.6830   -2.1140   -2.1360 c3        1 MOL     -0.172943
     62 C22        -5.1860   -2.0160   -1.8410 c         1 MOL      0.802120
     63 O11        -4.3930   -1.7020   -2.7700 o         1 MOL     -0.777737
     64 O12        -4.7160   -2.0430   -0.7380 o         1 MOL     -0.777737
     65 H26        -6.4340   -0.1640   -0.3220 hn        1 MOL      0.120620
     66 H27        -8.6490   -1.8840   -1.2350 h1        1 MOL      0.110830
     67 H28        -6.8890   -1.5840   -3.0670 hc        1 MOL      0.052237
     68 H29        -6.7630   -3.1280   -2.5040 hc        1 MOL      0.052237
     69 N6         -6.6970   -2.4400    1.2330 n         1 MOL     -0.111484
     70 C23        -6.2560   -3.3900    2.2520 c3        1 MOL     -0.348803
     71 C24        -5.0220   -4.3860    2.0570 c         1 MOL      0.607988
     72 O13        -4.8940   -5.3210    2.9150 o         1 MOL     -0.601093
     73 H30        -6.4340   -1.4660    1.2890 hn        1 MOL      0.185493
     74 H31        -7.0920   -4.0380    2.5090 h1        1 MOL      0.121748
     75 H32        -5.8970   -2.7370    3.0340 h1        1 MOL      0.121748
     76 N7         -4.1260   -4.1370    1.1090 n         1 MOL     -0.385112
     77 C25        -2.7740   -4.5940    1.1700 c3        1 MOL      0.095348
     78 C26        -1.7560   -3.4410    1.1320 c         1 MOL      0.580979
     79 O14        -2.0720   -2.3090    0.7580 o         1 MOL     -0.700484
     80 C27        -2.5090   -5.5610    0.0190 c3        1 MOL     -0.075097
     81 C28        -2.7440   -4.9910   -1.4020 c3        1 MOL     -0.141800
     82 C29        -1.6610   -4.1420   -1.9970 c         1 MOL      0.556997
     83 N8         -0.6320   -4.6620   -2.6340 n         1 MOL     -0.731628
     84 O15        -1.6950   -2.9530   -1.9000 o         1 MOL     -0.485592
     85 H33        -4.2750   -3.3800    0.4650 hn        1 MOL      0.391238
     86 H34        -2.6560   -5.1270    2.1140 h1        1 MOL      0.032592
     87 H35        -3.0670   -6.4740    0.2370 hc        1 MOL      0.014500
     88 H36        -1.4590   -5.8530    0.0360 hc        1 MOL      0.014500
     89 H37        -3.7380   -4.5490   -1.4340 hc        1 MOL      0.055718
     90 H38        -2.8370   -5.8050   -2.1160 hc        1 MOL      0.055718
     91 H39        -0.4970   -5.6600   -2.5830 hn        1 MOL      0.336322
     92 H40        -0.0910   -4.0710   -3.2400 hn        1 MOL      0.336322
     93 N9         -0.5140   -3.6940    1.5750 n         1 MOL     -0.339013
     94 C30         0.6080   -2.6970    1.6080 c3        1 MOL     -0.060554
     95 C31         1.8140   -3.2470    0.8080 c         1 MOL      0.371023
     96 O16         2.4190   -4.2820    1.1520 o         1 MOL     -0.569800
     97 C32         1.0110   -2.4130    3.0700 c3        1 MOL      0.339142
     98 C33         1.9710   -1.2590    3.1190 c3        1 MOL     -0.312383
     99 C34        -0.2340   -2.0210    3.7800 c3        1 MOL     -0.312383
    100 H41        -0.3250   -4.6300    1.9180 hn        1 MOL      0.230243
    101 H42         0.2460   -1.8170    1.0830 h1        1 MOL      0.131193
    102 H43         1.4790   -3.2160    3.6420 hc        1 MOL     -0.037866
    103 H44         1.6200   -0.3570    2.6270 hc        1 MOL      0.061884
    104 H45         2.1410   -1.0630    4.1720 hc        1 MOL      0.061884
    105 H46         2.9240   -1.5720    2.6790 hc        1 MOL      0.061884
    106 H47        -0.6450   -1.1580    3.2600 hc        1 MOL      0.061884
    107 H48        -0.9000   -2.8790    3.8950 hc        1 MOL      0.061884
    108 H49         0.1030   -1.7570    4.7890 hc        1 MOL      0.061884
    109 N10         2.1210   -2.5510   -0.2510 n         1 MOL     -0.150234
    110 C35         3.4130   -2.6010   -1.0080 c3        1 MOL      0.049185
    111 C36         4.6110   -1.9920   -0.2460 c         1 MOL      0.353491
    112 O17         4.4650   -1.0720    0.6090 o         1 MOL     -0.222548
    113 C37         3.2700   -1.9300   -2.3520 c3        1 MOL     -0.260492
    114 C38         2.3380   -2.6530   -3.2800 c         1 MOL      0.650178
    115 N11         1.1200   -2.2140   -3.4020 n         1 MOL     -0.716190
    116 O18         2.7020   -3.6670   -3.8590 o         1 MOL     -0.585788
    117 H50         1.4560   -1.8100   -0.4350 hn        1 MOL      0.162155
    118 H51         3.7090   -3.5790   -1.3700 h1        1 MOL      0.071259
    119 H52         4.2620   -1.8480   -2.8070 hc        1 MOL      0.080374
    120 H53         2.9280   -0.9050   -2.2580 hc        1 MOL      0.080374
    121 H54         0.7570   -1.4130   -2.9190 hn        1 MOL      0.356694
    122 H55         0.7600   -2.5040   -4.3000 hn        1 MOL      0.356694
    123 N12         5.8370   -2.4380   -0.5200 n         1 MOL     -0.542958
    124 C39         7.0220   -1.6960    0.0850 c3        1 MOL      0.251769
    125 C40         7.0400   -0.1710   -0.2120 c         1 MOL      0.531910
    126 O19         7.2430    0.6440    0.7530 o         1 MOL     -0.483245
    127 C41         8.3560   -2.2590   -0.2630 c3        1 MOL     -0.190422
    128 C42         9.5320   -1.5400    0.3670 ca        1 MOL      0.078343
    129 C43        10.0210   -1.8840    1.6640 ca        1 MOL     -0.215936
    130 C44        10.2660   -0.5880   -0.3530 ca        1 MOL     -0.215936
    131 C45        11.1690   -1.2400    2.1890 ca        1 MOL     -0.178989
    132 C46        11.4100    0.0420    0.1890 ca        1 MOL     -0.178989
    133 C47        11.8840   -0.2730    1.4710 ca        1 MOL      0.281524
    134 O20        12.9740    0.3300    2.0490 oh        1 MOL     -0.522106
    135 H56         5.9270   -3.2370   -1.1360 hn        1 MOL      0.323718
    136 H57         6.8700   -1.7460    1.1650 h1        1 MOL      0.059409
    137 H58         8.5240   -2.1310   -1.3280 hc        1 MOL      0.058363
    138 H59         8.3730   -3.3170    0.0260 hc        1 MOL      0.058363
    139 H60         9.5640   -2.6540    2.2630 ha        1 MOL      0.148648
    140 H61         9.8290   -0.3070   -1.2990 ha        1 MOL      0.148648
    141 H62        11.5540   -1.5100    3.1560 ha        1 MOL      0.119984
    142 H63        11.9670    0.7920   -0.3450 ha        1 MOL      0.119984
    143 H64        13.4250    1.0020    1.5260 ho        1 MOL      0.386627
    144 N13         6.6810    0.3090   -1.4130 n         1 MOL     -0.485300
    145 C48         6.4940    1.7070   -1.6860 c3        1 MOL      0.104073
    146 C49         5.3960    2.3940   -0.8280 c         1 MOL      0.356415
    147 O21         5.4270    3.6540   -0.7460 o         1 MOL     -0.526756
    148 C50         6.2580    1.9840   -3.1880 c3        1 MOL     -0.145418
    149 C51         4.9290    1.3170   -3.6500 c3        1 MOL     -0.009573
    150 C52         4.6710    1.5910   -5.1250 c         1 MOL      0.659625
    151 O22         4.3900    0.6000   -5.8830 o         1 MOL     -0.718708
    152 O23         4.7060    2.7260   -5.6690 o         1 MOL     -0.718708
    153 H65         6.5430   -0.3770   -2.1350 hn        1 MOL      0.310261
    154 H66         7.3850    2.2640   -1.4190 h1        1 MOL      0.047519
    155 H67         7.1400    1.6560   -3.7350 hc        1 MOL      0.052879
    156 H68         6.1660    3.0720   -3.2380 hc        1 MOL      0.052879
    157 H69         4.1070    1.5090   -2.9610 hc        1 MOL     -0.047382
    158 H70         4.9840    0.2360   -3.6930 hc        1 MOL     -0.047382
    159 N14         4.4380    1.6920   -0.1760 n         1 MOL     -0.047277
    160 C53         3.4870    2.3580    0.8050 c3        1 MOL      0.018132
    161 C54         3.9480    2.1930    2.1870 c         1 MOL      0.398439
    162 O24         3.5180    2.9640    3.0750 o         1 MOL     -0.564778
    163 C55         2.0940    1.6790    0.5920 c3        1 MOL      0.165221
    164 C56         1.4750    1.8420   -0.7930 c3        1 MOL     -0.077165
    165 C57         0.1570    1.0420   -0.9300 c         1 MOL      0.654244
    166 O25        -0.9630    1.5940   -1.0060 o         1 MOL     -0.709979
    167 O26         0.1840   -0.2190   -1.0060 o         1 MOL     -0.709979
    168 H71         4.5030    0.6780   -0.1360 hn        1 MOL      0.061548
    169 H72         3.3120    3.4120    0.6070 h1        1 MOL      0.053364
    170 H73         1.3590    2.2200    1.1790 hc        1 MOL     -0.014875
    171 H74         2.2630    0.6140    0.7620 hc        1 MOL     -0.014875
    172 H75         2.1460    1.4240   -1.5420 hc        1 MOL      0.033877
    173 H76         1.3470    2.8950   -1.0650 hc        1 MOL      0.033877
    174 N15         4.8820    1.3070    2.4010 n         1 MOL      0.108136
    175 C58         5.5300    1.0280    3.6880 c3        1 MOL     -0.316552
    176 H77         5.7520   -0.0360    3.7590 h1        1 MOL      0.108000
    177 H78         6.4560    1.5980    3.7610 h1        1 MOL      0.108000
    178 H79         4.8620    1.3140    4.5010 h1        1 MOL      0.108000
    179 H80         5.1420    0.7690    1.5860 hn        1 MOL     -0.178651
    180 Ca1        -2.5260   -0.4880   -1.3180 Ca        1 MOL      1.772074
    181 O27        -1.6960   -0.0490   -3.7600 oh        1 MOL     -0.882768
    182 H81        -2.3780    0.5140   -4.1220 ho        1 MOL      0.410107
    183 H82        -0.8800    0.2540   -4.1700 ho        1 MOL      0.410107
@<TRIPOS>BOND
     1    1    2 1   
     2    1    4 1   
     3    1    5 1   
     4    1    6 1   
     5    2    3 2   
     6    2    7 1   
     7    7    8 1   
     8    7   15 1   
     9    8    9 1   
    10    8   11 1   
    11    8   16 1   
    12    9   10 2   
    13    9   19 1   
    14   11   12 1   
    15   11   17 1   
    16   11   18 1   
    17   12   13 1   
    18   12   14 1   
    19   19   20 1   
    20   19   27 1   
    21   20   21 1   
    22   20   23 1   
    23   20   28 1   
    24   21   22 2   
    25   21   38 1   
    26   23   24 1   
    27   23   25 1   
    28   23   29 1   
    29   24   26 1   
    30   24   30 1   
    31   24   31 1   
    32   25   32 1   
    33   25   33 1   
    34   25   34 1   
    35   26   35 1   
    36   26   36 1   
    37   26   37 1   
    38   38   39 1   
    39   38   46 1   
    40   39   40 1   
    41   39   42 1   
    42   39   47 1   
    43   40   41 2   
    44   40   50 1   
    45   42   43 1   
    46   42   48 1   
    47   42   49 1   
    48   43   44 1   
    49   43   45 1   
    50   50   51 1   
    51   50   54 1   
    52   51   52 1   
    53   51   55 1   
    54   51   56 1   
    55   52   53 2   
    56   52   57 1   
    57   57   58 1   
    58   57   65 1   
    59   58   59 1   
    60   58   61 1   
    61   58   66 1   
    62   59   60 2   
    63   59   69 1   
    64   61   62 1   
    65   61   67 1   
    66   61   68 1   
    67   62   63 1   
    68   62   64 1   
    69   69   70 1   
    70   69   73 1   
    71   70   71 1   
    72   70   74 1   
    73   70   75 1   
    74   71   72 2   
    75   71   76 1   
    76   76   77 1   
    77   76   85 1   
    78   77   78 1   
    79   77   80 1   
    80   77   86 1   
    81   78   79 2   
    82   78   93 1   
    83   80   81 1   
    84   80   87 1   
    85   80   88 1   
    86   81   82 1   
    87   81   89 1   
    88   81   90 1   
    89   82   83 1   
    90   82   84 2   
    91   83   91 1   
    92   83   92 1   
    93   93   94 1   
    94   93  100 1   
    95   94   95 1   
    96   94   97 1   
    97   94  101 1   
    98   95   96 2   
    99   95  109 1   
   100   97   98 1   
   101   97   99 1   
   102   97  102 1   
   103   98  103 1   
   104   98  104 1   
   105   98  105 1   
   106   99  106 1   
   107   99  107 1   
   108   99  108 1   
   109  109  110 1   
   110  109  117 1   
   111  110  111 1   
   112  110  113 1   
   113  110  118 1   
   114  111  112 2   
   115  111  123 1   
   116  113  114 1   
   117  113  119 1   
   118  113  120 1   
   119  114  115 1   
   120  114  116 2   
   121  115  121 1   
   122  115  122 1   
   123  123  124 1   
   124  123  135 1   
   125  124  125 1   
   126  124  127 1   
   127  124  136 1   
   128  125  126 2   
   129  125  144 1   
   130  127  128 1   
   131  127  137 1   
   132  127  138 1   
   133  128  129 ar  
   134  128  130 ar  
   135  129  131 ar  
   136  129  139 1   
   137  130  132 ar  
   138  130  140 1   
   139  131  133 ar  
   140  131  141 1   
   141  132  133 ar  
   142  132  142 1   
   143  133  134 1   
   144  134  143 1   
   145  144  145 1   
   146  144  153 1   
   147  145  146 1   
   148  145  148 1   
   149  145  154 1   
   150  146  147 2   
   151  146  159 1   
   152  148  149 1   
   153  148  155 1   
   154  148  156 1   
   155  149  150 1   
   156  149  157 1   
   157  149  158 1   
   158  150  151 1   
   159  150  152 1   
   160  159  160 1   
   161  159  168 1   
   162  160  161 1   
   163  160  163 1   
   164  160  169 1   
   165  161  162 2   
   166  161  174 1   
   167  163  164 1   
   168  163  170 1   
   169  163  171 1   
   170  164  165 1   
   171  164  172 1   
   172  164  173 1   
   173  165  166 1   
   174  165  167 1   
   175  174  175 1   
   176  174  179 1   
   177  175  176 1   
   178  175  177 1   
   179  175  178 1   
   180  181  182 1   
   181  181  183 1   
@<TRIPOS>SUBSTRUCTURE
     1 MOL         1 TEMP              0 ****  ****    0 ROOT
