@<TRIPOS>MOLECULE
MOL
  175   173     1     0     0
SMALL
resp


@<TRIPOS>ATOM
      1 C1          0.3830    4.3060    5.3280 c3        1 MOL     -0.408246
      2 C2         -0.3110    4.3050    3.9500 c         1 MOL      0.725540
      3 O1          0.2810    4.6150    2.9410 o         1 MOL     -0.543358
      4 H1          0.5490    5.3350    5.6500 hc        1 MOL      0.098450
      5 H2         -0.2480    3.7950    6.0550 hc        1 MOL      0.098450
      6 H3          1.3410    3.7920    5.2530 hc        1 MOL      0.098450
      7 N1         -1.6050    3.9870    3.8960 n         1 MOL     -0.646820
      8 C3         -2.2620    3.6840    2.7030 c3        1 MOL      0.150028
      9 C4         -2.4670    4.8490    1.7510 c         1 MOL      0.625810
     10 O2         -2.6120    6.0410    2.1700 o         1 MOL     -0.603764
     11 C5         -3.6230    3.0600    2.9960 c3        1 MOL     -0.392506
     12 C6         -4.3310    2.4960    1.7470 c         1 MOL      0.714590
     13 O3         -5.5900    2.4660    1.6530 o         1 MOL     -0.669920
     14 O4         -3.6150    2.0040    0.8430 o         1 MOL     -0.669920
     15 H4         -2.1450    3.9250    4.7410 hn        1 MOL      0.333009
     16 H5         -1.6760    2.8910    2.2490 h1        1 MOL      0.137295
     17 H6         -4.2870    3.8000    3.4500 hc        1 MOL      0.083946
     18 H7         -3.5160    2.1960    3.6580 hc        1 MOL      0.083946
     19 N2         -2.5340    4.5140    0.4790 n         1 MOL     -0.496372
     20 C7         -2.5580    5.4030   -0.7300 c3        1 MOL      0.309354
     21 C8         -3.4470    4.8560   -1.8750 c         1 MOL      0.403335
     22 O5         -3.3780    5.3250   -3.0220 o         1 MOL     -0.527867
     23 C9         -1.1220    5.5960   -1.1450 c3        1 MOL     -0.354988
     24 H8         -2.4010    3.5260    0.2990 hn        1 MOL      0.278440
     25 H9         -3.0220    6.3620   -0.4800 h1        1 MOL      0.007620
     26 H10        -0.7130    4.6430   -1.4970 hc        1 MOL      0.095489
     27 H11        -1.0320    6.2270   -2.0250 hc        1 MOL      0.095489
     28 H12        -0.6690    6.0330   -0.2610 hc        1 MOL      0.095489
     29 N3         -4.2690    3.7760   -1.6440 n         1 MOL     -0.316954
     30 C10        -5.1420    3.1740   -2.6920 c3        1 MOL      0.095173
     31 C11        -6.2380    2.2920   -2.1440 c         1 MOL      0.295888
     32 O6         -7.3240    2.2480   -2.7640 o         1 MOL     -0.551330
     33 C12        -4.3600    2.3990   -3.7730 c3        1 MOL     -0.035002
     34 C13        -3.3800    1.3850   -3.1540 c         1 MOL      0.658570
     35 O7         -3.6420    0.7810   -2.0680 o         1 MOL     -0.670942
     36 O8         -2.3650    1.0720   -3.8180 o         1 MOL     -0.670942
     37 H13        -4.3570    3.3870   -0.7190 hn        1 MOL      0.115715
     38 H14        -5.6560    3.9590   -3.2510 h1        1 MOL      0.055365
     39 H15        -3.8000    3.0530   -4.4370 hc        1 MOL      0.011498
     40 H16        -5.0100    1.8410   -4.4550 hc        1 MOL      0.011498
     41 N4         -6.1140    1.6820   -0.9340 n         1 MOL     -0.020933
     42 C14        -7.2650    0.8150   -0.4010 c3        1 MOL     -0.320076
     43 C15        -7.3260   -0.5370   -1.0070 c         1 MOL      0.591162
     44 O9         -8.3610   -1.2560   -0.8680 o         1 MOL     -0.625656
     45 H17        -5.2420    1.8300   -0.4510 hn        1 MOL      0.185376
     46 H18        -8.1990    1.3360   -0.5910 h1        1 MOL      0.132505
     47 H19        -7.0860    0.7730    0.6750 h1        1 MOL      0.132505
     48 N5         -6.2060   -0.9460   -1.6510 n         1 MOL     -0.365100
     49 C16        -5.9530   -2.3010   -2.1790 c3        1 MOL      0.082342
     50 C17        -5.9520   -3.4470   -1.0690 c         1 MOL      0.312105
     51 O10        -5.5980   -4.5960   -1.4150 o         1 MOL     -0.484319
     52 C18        -4.7720   -2.3390   -3.1320 c3        1 MOL     -0.148831
     53 C19        -3.3540   -2.3950   -2.5630 c         1 MOL      0.536646
     54 N6         -2.4450   -2.4420   -3.5190 n         1 MOL     -0.659746
     55 O11        -3.0620   -2.1990   -1.4120 o         1 MOL     -0.306109
     56 H20        -5.5090   -0.2200   -1.7820 hn        1 MOL      0.229123
     57 H21        -6.8390   -2.5430   -2.7530 h1        1 MOL      0.078674
     58 H22        -4.8480   -1.5850   -3.9170 hc        1 MOL      0.046943
     59 H23        -4.9100   -3.2880   -3.6480 hc        1 MOL      0.046943
     60 H24        -2.8140   -2.4880   -4.4590 hn        1 MOL      0.336449
     61 H25        -1.5000   -2.1830   -3.2710 hn        1 MOL      0.336449
     62 N7         -6.2300   -3.2100    0.2030 n         1 MOL     -0.078048
     63 C20        -6.2410   -4.2510    1.2590 c3        1 MOL     -0.278245
     64 C21        -4.8080   -4.6140    1.7610 c         1 MOL      0.565753
     65 O12        -4.7290   -5.5070    2.6310 o         1 MOL     -0.575383
     66 H26        -6.7040   -2.3560    0.4530 hn        1 MOL      0.211501
     67 H27        -6.8750   -5.0960    0.9940 h1        1 MOL      0.124882
     68 H28        -6.6490   -3.7790    2.1520 h1        1 MOL      0.124882
     69 N8         -3.7260   -4.0490    1.2090 n         1 MOL     -0.159272
     70 C22        -2.3770   -4.4920    1.4660 c3        1 MOL     -0.269419
     71 C23        -1.4120   -3.3160    1.6590 c         1 MOL      0.621422
     72 O13        -1.5340   -2.2210    1.1130 o         1 MOL     -0.626116
     73 C24        -1.8130   -5.3880    0.3120 c3        1 MOL      0.628816
     74 C25        -2.5170   -6.7490    0.5220 c3        1 MOL     -0.579823
     75 O14        -2.1860   -4.9330   -0.9610 oh        1 MOL     -0.557723
     76 H29        -3.8730   -3.3760    0.4720 hn        1 MOL      0.001654
     77 H30        -2.3920   -4.9970    2.4290 h1        1 MOL      0.094550
     78 H31        -0.7370   -5.5490    0.4180 h1        1 MOL     -0.055610
     79 H32        -2.1890   -3.9680   -0.8960 ho        1 MOL      0.252008
     80 H33        -3.5920   -6.5590    0.4480 hc        1 MOL      0.141653
     81 H34        -2.0360   -7.3830   -0.2190 hc        1 MOL      0.141653
     82 H35        -2.3240   -7.1620    1.5120 hc        1 MOL      0.141653
     83 N9         -0.2740   -3.5690    2.3500 n         1 MOL     -0.356026
     84 C26         0.8410   -2.6450    2.3050 c3        1 MOL      0.019268
     85 C27         1.5760   -2.9710    1.0160 c         1 MOL      0.459846
     86 O15         1.8370   -4.1020    0.7030 o         1 MOL     -0.576782
     87 C28         1.6770   -2.6730    3.5950 c3        1 MOL      0.175699
     88 C29         0.7170   -2.3470    4.8130 c3        1 MOL      0.060956
     89 C30         2.9390   -1.8210    3.4450 c3        1 MOL     -0.132937
     90 C31         1.3050   -3.0810    6.0430 c3        1 MOL     -0.382598
     91 H36        -0.1950   -4.4890    2.7480 hn        1 MOL      0.227339
     92 H37         0.5080   -1.6090    2.1920 h1        1 MOL      0.004439
     93 H38         2.0420   -3.6890    3.7550 hc        1 MOL     -0.017479
     94 H39        -0.3350   -2.5790    4.6140 hc        1 MOL      0.001797
     95 H40         0.7810   -1.2880    5.0590 hc        1 MOL      0.001797
     96 H41         3.5910   -1.7320    4.3150 hc        1 MOL      0.013384
     97 H42         3.6130   -2.1600    2.6580 hc        1 MOL      0.013384
     98 H43         2.6090   -0.8030    3.1910 hc        1 MOL      0.013384
     99 H44         0.9180   -2.6230    6.9570 hc        1 MOL      0.090260
    100 H45         1.2330   -4.1630    5.9820 hc        1 MOL      0.090260
    101 H46         2.3360   -2.7580    6.1740 hc        1 MOL      0.090260
    102 N10         1.8920   -1.9220    0.2110 n         1 MOL     -0.173831
    103 C32         2.7410   -1.9670   -0.9720 c3        1 MOL      0.064242
    104 C33         4.1640   -1.5860   -0.4870 c         1 MOL      0.488592
    105 O16         4.2790   -0.6160    0.2500 o         1 MOL     -0.303971
    106 C34         2.1250   -0.9920   -1.9720 c3        1 MOL     -0.309539
    107 C35         0.6040   -1.2670   -2.3750 c         1 MOL      0.734963
    108 O17        -0.3390   -0.8570   -1.6930 o         1 MOL     -0.668020
    109 O18         0.4330   -2.0020   -3.3800 o         1 MOL     -0.668020
    110 H47         1.4810   -1.0480    0.5110 hn        1 MOL      0.189750
    111 H48         2.7840   -2.9580   -1.4250 h1        1 MOL      0.062175
    112 H49         2.6990   -0.9330   -2.8900 hc        1 MOL      0.077608
    113 H50         2.2690    0.0380   -1.6330 hc        1 MOL      0.077608
    114 N11         5.2370   -2.1700   -1.1230 n         1 MOL     -0.699243
    115 C36         6.6010   -1.5130   -0.9640 c3        1 MOL      0.255559
    116 C37         6.7800   -0.0210   -1.0260 c         1 MOL      0.386679
    117 O19         7.3200    0.5060   -0.1060 o         1 MOL     -0.506028
    118 C38         7.5800   -2.1180   -2.0060 c3        1 MOL     -0.082856
    119 C39         9.0760   -1.8520   -1.7360 ca        1 MOL     -0.014708
    120 C40         9.7780   -0.8240   -2.4500 ca        1 MOL     -0.113310
    121 C41         9.7600   -2.4310   -0.6550 ca        1 MOL     -0.113310
    122 C42        11.1160   -0.6390   -2.2820 ca        1 MOL     -0.075307
    123 C43        11.1450   -2.2990   -0.5080 ca        1 MOL     -0.075307
    124 C44        11.8460   -1.3860   -1.3280 ca        1 MOL     -0.180594
    125 H51         5.0320   -2.9150   -1.7680 hn        1 MOL      0.361184
    126 H52         6.9980   -1.7720    0.0140 h1        1 MOL      0.082651
    127 H53         7.3350   -1.8810   -3.0450 hc        1 MOL      0.052330
    128 H54         7.5490   -3.2080   -2.0370 hc        1 MOL      0.052330
    129 H55         9.1760   -0.1940   -3.0980 ha        1 MOL      0.088146
    130 H56         9.1950   -3.0780    0.0060 ha        1 MOL      0.088146
    131 H57        11.7200    0.0070   -2.8930 ha        1 MOL      0.096916
    132 H58        11.7040   -2.8180    0.2590 ha        1 MOL      0.096916
    133 H59        12.8810   -1.0920   -1.2050 ha        1 MOL      0.125335
    134 N12         6.1820    0.7700   -2.0100 n         1 MOL      0.074744
    135 C45         6.2460    2.2030   -2.0460 c3        1 MOL      0.016434
    136 C46         5.5450    2.8520   -0.8110 c         1 MOL      0.387696
    137 O20         5.7400    4.0410   -0.5210 o         1 MOL     -0.541536
    138 C47         5.7430    2.6310   -3.4760 c3        1 MOL     -0.210473
    139 C48         4.7980    1.3740   -3.7340 c3        1 MOL     -0.016998
    140 C49         5.6440    0.2500   -3.2050 c3        1 MOL     -0.059052
    141 H60         7.2910    2.5030   -1.9630 h1        1 MOL      0.044992
    142 H61         5.1090    3.5220   -3.4010 hc        1 MOL      0.085127
    143 H62         6.4950    2.7080   -4.2570 hc        1 MOL      0.085127
    144 H63         3.8730    1.6240   -3.2020 hc        1 MOL      0.051758
    145 H64         4.4850    1.2670   -4.7660 hc        1 MOL      0.051758
    146 H65         5.1020   -0.6800   -3.0490 h1        1 MOL      0.010269
    147 H66         6.4890    0.0920   -3.8770 h1        1 MOL      0.010269
    148 N13         4.7240    2.1050   -0.0760 n         1 MOL     -0.027117
    149 C50         4.0720    2.4840    1.2380 c3        1 MOL     -0.082387
    150 C51         4.8690    2.0320    2.4530 c         1 MOL      0.410909
    151 O21         4.9600    2.7340    3.4440 o         1 MOL     -0.548322
    152 C52         2.5970    1.9170    1.3760 c3        1 MOL     -0.165974
    153 C53         1.6360    2.5440    0.3420 c3        1 MOL      0.031348
    154 C54         0.2450    1.8600    0.4590 c         1 MOL      0.448841
    155 O22        -0.6440    2.1850   -0.3620 o         1 MOL     -0.655689
    156 O23         0.0960    0.9170    1.2490 o         1 MOL     -0.655689
    157 H67         4.7340    1.1220   -0.2910 hn        1 MOL     -0.105114
    158 H68         4.0060    3.5780    1.2790 h1        1 MOL      0.123218
    159 H69         2.1860    2.0310    2.3720 hc        1 MOL      0.095174
    160 H70         2.6410    0.8810    1.0690 hc        1 MOL      0.095174
    161 H71         2.0000    2.4600   -0.6870 hc        1 MOL      0.042708
    162 H72         1.5330    3.6200    0.4450 hc        1 MOL      0.042708
    163 N14         5.6210    0.9090    2.3760 n         1 MOL     -0.021441
    164 C55         6.5840    0.4720    3.3360 c3        1 MOL     -0.146339
    165 H73         6.8600    1.3070    3.9790 h1        1 MOL      0.057384
    166 H74         6.1550   -0.3270    3.9430 h1        1 MOL      0.057384
    167 H75         7.4700    0.1010    2.8200 h1        1 MOL      0.057384
    168 H76         5.5670    0.4000    1.5030 hn        1 MOL      0.079451
    169 Ca1        -2.1080    0.0630   -0.1040 Ca        1 MOL      1.616368
    170 O24        -1.9580    0.1300    2.6070 oh        1 MOL     -0.739081
    171 H77        -2.0910   -0.0030    3.5440 ho        1 MOL      0.359496
    172 H78        -1.0450    0.4450    2.5400 ho        1 MOL      0.359496
    173 O25        -4.5070   -0.5140    0.9200 oh        1 MOL     -0.739081
    174 H79        -5.1950   -0.7880    1.5300 ho        1 MOL      0.359496
    175 H80        -4.4790    0.4430    1.0000 ho        1 MOL      0.359496
@<TRIPOS>BOND
     1    1    2 1   
     2    1    4 1   
     3    1    5 1   
     4    1    6 1   
     5    2    3 2   
     6    2    7 1   
     7    7    8 1   
     8    7   15 1   
     9    8    9 1   
    10    8   11 1   
    11    8   16 1   
    12    9   10 2   
    13    9   19 1   
    14   11   12 1   
    15   11   17 1   
    16   11   18 1   
    17   12   13 1   
    18   12   14 1   
    19   19   20 1   
    20   19   24 1   
    21   20   21 1   
    22   20   23 1   
    23   20   25 1   
    24   21   22 2   
    25   21   29 1   
    26   23   26 1   
    27   23   27 1   
    28   23   28 1   
    29   29   30 1   
    30   29   37 1   
    31   30   31 1   
    32   30   33 1   
    33   30   38 1   
    34   31   32 2   
    35   31   41 1   
    36   33   34 1   
    37   33   39 1   
    38   33   40 1   
    39   34   35 1   
    40   34   36 1   
    41   41   42 1   
    42   41   45 1   
    43   42   43 1   
    44   42   46 1   
    45   42   47 1   
    46   43   44 2   
    47   43   48 1   
    48   48   49 1   
    49   48   56 1   
    50   49   50 1   
    51   49   52 1   
    52   49   57 1   
    53   50   51 2   
    54   50   62 1   
    55   52   53 1   
    56   52   58 1   
    57   52   59 1   
    58   53   54 1   
    59   53   55 2   
    60   54   60 1   
    61   54   61 1   
    62   62   63 1   
    63   62   66 1   
    64   63   64 1   
    65   63   67 1   
    66   63   68 1   
    67   64   65 2   
    68   64   69 1   
    69   69   70 1   
    70   69   76 1   
    71   70   71 1   
    72   70   73 1   
    73   70   77 1   
    74   71   72 2   
    75   71   83 1   
    76   73   74 1   
    77   73   75 1   
    78   73   78 1   
    79   74   80 1   
    80   74   81 1   
    81   74   82 1   
    82   75   79 1   
    83   83   84 1   
    84   83   91 1   
    85   84   85 1   
    86   84   87 1   
    87   84   92 1   
    88   85   86 2   
    89   85  102 1   
    90   87   88 1   
    91   87   89 1   
    92   87   93 1   
    93   88   90 1   
    94   88   94 1   
    95   88   95 1   
    96   89   96 1   
    97   89   97 1   
    98   89   98 1   
    99   90   99 1   
   100   90  100 1   
   101   90  101 1   
   102  102  103 1   
   103  102  110 1   
   104  103  104 1   
   105  103  106 1   
   106  103  111 1   
   107  104  105 2   
   108  104  114 1   
   109  106  107 1   
   110  106  112 1   
   111  106  113 1   
   112  107  108 1   
   113  107  109 1   
   114  114  115 1   
   115  114  125 1   
   116  115  116 1   
   117  115  118 1   
   118  115  126 1   
   119  116  117 2   
   120  116  134 1   
   121  118  119 1   
   122  118  127 1   
   123  118  128 1   
   124  119  120 ar  
   125  119  121 ar  
   126  120  122 ar  
   127  120  129 1   
   128  121  123 ar  
   129  121  130 1   
   130  122  124 ar  
   131  122  131 1   
   132  123  124 ar  
   133  123  132 1   
   134  124  133 1   
   135  134  135 1   
   136  134  140 1   
   137  135  136 1   
   138  135  138 1   
   139  135  141 1   
   140  136  137 2   
   141  136  148 1   
   142  138  139 1   
   143  138  142 1   
   144  138  143 1   
   145  139  140 1   
   146  139  144 1   
   147  139  145 1   
   148  140  146 1   
   149  140  147 1   
   150  148  149 1   
   151  148  157 1   
   152  149  150 1   
   153  149  152 1   
   154  149  158 1   
   155  150  151 2   
   156  150  163 1   
   157  152  153 1   
   158  152  159 1   
   159  152  160 1   
   160  153  154 1   
   161  153  161 1   
   162  153  162 1   
   163  154  155 1   
   164  154  156 1   
   165  163  164 1   
   166  163  168 1   
   167  164  165 1   
   168  164  166 1   
   169  164  167 1   
   170  170  171 1   
   171  170  172 1   
   172  173  174 1   
   173  173  175 1   
@<TRIPOS>SUBSTRUCTURE
     1 MOL         1 TEMP              0 ****  ****    0 ROOT
