@<TRIPOS>MOLECULE
MOL
  175   173     1     0     0
SMALL
resp


@<TRIPOS>ATOM
      1 C1         -0.2550   -3.3100    5.8950 c3        1 MOL     -0.442962
      2 C2          0.1180   -3.4570    4.4540 c         1 MOL      0.744103
      3 O1         -0.7390   -3.4740    3.5690 o         1 MOL     -0.556220
      4 H1          0.4670   -2.6630    6.3920 hc        1 MOL      0.106815
      5 H2         -1.2490   -2.8700    5.9700 hc        1 MOL      0.106815
      6 H3         -0.2530   -4.2900    6.3720 hc        1 MOL      0.106815
      7 N1          1.3870   -3.5190    4.1880 n         1 MOL     -0.668194
      8 C3          1.9730   -3.4210    2.8020 c3        1 MOL      0.370879
      9 C4          1.9330   -4.6440    1.8340 c         1 MOL      0.315551
     10 O2          1.7270   -5.7900    2.2970 o         1 MOL     -0.542521
     11 C5          3.3680   -2.7940    3.0520 c3        1 MOL     -0.372505
     12 C6          4.1660   -2.3240    1.8740 c         1 MOL      0.654415
     13 O3          5.3450   -2.7170    1.8490 o         1 MOL     -0.643746
     14 O4          3.6250   -1.7520    0.9110 o         1 MOL     -0.643746
     15 H4          1.9310   -3.5470    5.0360 hn        1 MOL      0.324829
     16 H5          1.3040   -2.7550    2.2710 h1        1 MOL     -0.020569
     17 H6          3.8860   -3.5560    3.6350 hc        1 MOL      0.075229
     18 H7          3.3480   -1.9820    3.7710 hc        1 MOL      0.075229
     19 N2          2.0080   -4.3410    0.5780 n         1 MOL     -0.153560
     20 C7          2.0260   -5.3320   -0.4260 c3        1 MOL      0.269303
     21 C8          2.9920   -5.1360   -1.5980 c         1 MOL      0.446681
     22 O5          3.0100   -5.9020   -2.5110 o         1 MOL     -0.533353
     23 C9          0.6310   -5.3660   -1.0210 c3        1 MOL     -0.412724
     24 H8          2.0410   -3.3690    0.2750 hn        1 MOL      0.324581
     25 H9          2.2190   -6.2780    0.0760 h1        1 MOL      0.016217
     26 H10        -0.0360   -5.1140   -0.1970 hc        1 MOL      0.100084
     27 H11         0.5390   -4.6240   -1.8220 hc        1 MOL      0.100084
     28 H12         0.4630   -6.3940   -1.3390 hc        1 MOL      0.100084
     29 N3          3.8970   -4.1170   -1.4890 n         1 MOL     -0.483526
     30 C10         4.8820   -3.6260   -2.5520 c3        1 MOL      0.390167
     31 C11         6.1520   -2.9490   -2.0830 c         1 MOL      0.228637
     32 O6          7.2390   -3.0060   -2.6960 o         1 MOL     -0.533810
     33 C12         4.2180   -2.8040   -3.5310 c3        1 MOL     -0.265256
     34 C13         3.2500   -1.7510   -3.0030 c         1 MOL      0.846537
     35 O7          3.4460   -1.1770   -1.9260 o         1 MOL     -0.705655
     36 O8          2.3760   -1.4150   -3.7930 o         1 MOL     -0.705655
     37 H13         3.8080   -3.6110   -0.6100 hn        1 MOL      0.042451
     38 H14         5.3370   -4.4390   -3.1180 h1        1 MOL      0.006857
     39 H15         3.5720   -3.4710   -4.0990 hc        1 MOL      0.040891
     40 H16         4.9890   -2.4180   -4.2040 hc        1 MOL      0.040891
     41 N4          6.0260   -2.2810   -0.9390 n         1 MOL     -0.141160
     42 C14         7.1300   -1.4980   -0.4480 c3        1 MOL     -0.034440
     43 C15         7.1620   -0.1050   -1.0770 c         1 MOL      0.401205
     44 O9          8.3280    0.3900   -1.0950 o         1 MOL     -0.614846
     45 H17         5.1000   -2.2370   -0.5160 hn        1 MOL      0.260174
     46 H18         8.0560   -2.0520   -0.4720 h1        1 MOL      0.067274
     47 H19         6.9800   -1.4070    0.6250 h1        1 MOL      0.067274
     48 N5          6.0670    0.5000   -1.4440 n         1 MOL     -0.019418
     49 C16         6.0650    1.8350   -2.0490 c3        1 MOL     -0.239695
     50 C17         6.1350    3.0570   -1.1130 c         1 MOL      0.432762
     51 O10         5.9520    4.2000   -1.6100 o         1 MOL     -0.532296
     52 C18         5.0130    1.9220   -3.1610 c3        1 MOL      0.089931
     53 C19         3.6060    2.2560   -2.6380 c         1 MOL      0.355642
     54 N6          2.5730    2.4260   -3.4410 n         1 MOL     -0.578373
     55 O11         3.3490    2.2020   -1.3970 o         1 MOL     -0.358386
     56 H20         5.2450   -0.0860   -1.4480 hn        1 MOL      0.103987
     57 H21         6.9690    1.9460   -2.6550 h1        1 MOL      0.141735
     58 H22         4.9550    0.9020   -3.5550 hc        1 MOL      0.011768
     59 H23         5.3100    2.5770   -3.9910 hc        1 MOL      0.011768
     60 H24         2.6640    2.3820   -4.4490 hn        1 MOL      0.332910
     61 H25         1.6740    2.4410   -2.9920 hn        1 MOL      0.332910
     62 N7          6.2210    2.8620    0.1930 n         1 MOL     -0.155348
     63 C20         6.2610    3.8840    1.2980 c3        1 MOL     -0.359638
     64 C21         4.9830    4.6620    1.5740 c         1 MOL      0.573322
     65 O12         5.0510    5.6400    2.3140 o         1 MOL     -0.584047
     66 H26         6.2580    1.8860    0.4630 hn        1 MOL      0.204619
     67 H27         7.0150    4.6590    1.1400 h1        1 MOL      0.148386
     68 H28         6.4150    3.3290    2.2180 h1        1 MOL      0.148386
     69 N8          3.8400    4.1800    1.1440 n         1 MOL     -0.090269
     70 C22         2.4970    4.7450    1.3210 c3        1 MOL     -0.359444
     71 C23         1.4430    3.5790    1.4330 c         1 MOL      0.544964
     72 O13         1.6470    2.5440    0.8450 o         1 MOL     -0.512983
     73 C24         2.0080    5.5800    0.1600 c3        1 MOL      0.640027
     74 C25         2.9950    6.7300   -0.0390 c3        1 MOL     -0.397915
     75 O14         1.9530    4.8280   -1.0390 oh        1 MOL     -0.666905
     76 H29         3.8500    3.2760    0.7010 hn        1 MOL      0.109005
     77 H30         2.3790    5.3840    2.1970 h1        1 MOL      0.110116
     78 H31         1.0700    6.1220    0.2930 h1        1 MOL     -0.015753
     79 H32         2.6230    4.1410   -1.1050 ho        1 MOL      0.350243
     80 H33         3.9450    6.4010   -0.4550 hc        1 MOL      0.082767
     81 H34         2.5790    7.4820   -0.7120 hc        1 MOL      0.082767
     82 H35         3.0840    7.1950    0.9400 hc        1 MOL      0.082767
     83 N9          0.2910    3.7710    2.1290 n         1 MOL     -0.451713
     84 C26        -0.8300    2.8880    1.9940 c3        1 MOL     -0.073704
     85 C27        -1.5460    3.1440    0.7000 c         1 MOL      0.552577
     86 O15        -2.0100    4.2740    0.4560 o         1 MOL     -0.600478
     87 C28        -1.8190    3.1010    3.2520 c3        1 MOL      0.262437
     88 C29        -1.0900    2.5120    4.5340 c3        1 MOL      0.103117
     89 C30        -3.1610    2.4070    3.1180 c3        1 MOL     -0.260472
     90 C31        -1.6510    3.1600    5.7900 c3        1 MOL     -0.167630
     91 H36         0.2420    4.7050    2.5170 hn        1 MOL      0.257004
     92 H37        -0.5230    1.8390    1.9790 h1        1 MOL      0.051831
     93 H38        -2.0090    4.1640    3.4420 hc        1 MOL     -0.019774
     94 H39        -0.0290    2.7690    4.5970 hc        1 MOL     -0.018478
     95 H40        -1.2640    1.4400    4.5630 hc        1 MOL     -0.018478
     96 H41        -3.8050    2.6090    3.9760 hc        1 MOL      0.048265
     97 H42        -3.7080    2.7480    2.2430 hc        1 MOL      0.048265
     98 H43        -3.0460    1.3320    2.9550 hc        1 MOL      0.048265
     99 H44        -1.6080    4.2560    5.7440 hc        1 MOL      0.022589
    100 H45        -2.7080    2.9070    5.8340 hc        1 MOL      0.022589
    101 H46        -1.0370    2.8040    6.6120 hc        1 MOL      0.022589
    102 N10        -1.6850    2.0410   -0.0840 n         1 MOL     -0.056095
    103 C32        -2.4450    1.8970   -1.3220 c3        1 MOL      0.019325
    104 C33        -3.8110    1.4200   -0.9660 c         1 MOL      0.601655
    105 O16        -4.0470    0.7660    0.0810 o         1 MOL     -0.497959
    106 C34        -1.7920    0.8000   -2.2190 c3        1 MOL     -0.146742
    107 C35        -0.4040    1.1220   -2.7840 c         1 MOL      0.660318
    108 O17         0.6520    1.0590   -2.0480 o         1 MOL     -0.645837
    109 O18        -0.4060    1.6460   -3.9100 o         1 MOL     -0.645837
    110 H47        -1.0270    1.3140    0.1380 hn        1 MOL     -0.120186
    111 H48        -2.5400    2.8120   -1.9060 h1        1 MOL      0.057880
    112 H49        -2.4660    0.7600   -3.0730 hc        1 MOL      0.063902
    113 H50        -1.7330   -0.1520   -1.7000 hc        1 MOL      0.063902
    114 N11        -4.8080    1.6400   -1.8420 n         1 MOL     -0.782809
    115 C36        -6.2290    1.4210   -1.5010 c3        1 MOL      0.388405
    116 C37        -6.6090   -0.0460   -1.1000 c         1 MOL      0.246234
    117 O19        -7.0840   -0.2000    0.0050 o         1 MOL     -0.415276
    118 C38        -7.1460    2.0780   -2.5410 c3        1 MOL     -0.257486
    119 C39        -8.6180    1.7720   -2.2920 ca        1 MOL      0.165167
    120 C40        -9.2410    2.2230   -1.0930 ca        1 MOL     -0.232617
    121 C41        -9.4090    1.0490   -3.2160 ca        1 MOL     -0.232617
    122 C42       -10.6440    2.0130   -0.8410 ca        1 MOL     -0.077065
    123 C43       -10.7920    0.8180   -2.9720 ca        1 MOL     -0.077065
    124 C44       -11.3970    1.3210   -1.8220 ca        1 MOL     -0.126967
    125 H51        -4.5860    2.1060   -2.7090 hn        1 MOL      0.379362
    126 H52        -6.5760    1.8350   -0.5510 h1        1 MOL      0.058322
    127 H53        -6.8740    1.7070   -3.5260 hc        1 MOL      0.076214
    128 H54        -7.0080    3.1590   -2.5730 hc        1 MOL      0.076214
    129 H55        -8.7210    2.8550   -0.3830 ha        1 MOL      0.137606
    130 H56        -9.0200    0.6180   -4.1290 ha        1 MOL      0.137606
    131 H57       -11.1490    2.5000   -0.0240 ha        1 MOL      0.107499
    132 H58       -11.4180    0.2390   -3.6370 ha        1 MOL      0.107499
    133 H59       -12.4720    1.2100   -1.7770 ha        1 MOL      0.093112
    134 N12        -6.1090   -1.1140   -1.7550 n         1 MOL     -0.018123
    135 C45        -6.3490   -2.4970   -1.2960 c3        1 MOL      0.060044
    136 C46        -5.7450   -2.8060    0.1100 c         1 MOL      0.253928
    137 O20        -6.2630   -3.5500    0.9130 o         1 MOL     -0.493985
    138 C47        -5.8480   -3.4340   -2.3780 c3        1 MOL     -0.075063
    139 C48        -5.5830   -2.5250   -3.5200 c3        1 MOL      0.067753
    140 C49        -5.5140   -1.0950   -3.1030 c3        1 MOL      0.003165
    141 H60        -7.4340   -2.5410   -1.1510 h1        1 MOL      0.045927
    142 H61        -4.8850   -3.8910   -2.1560 hc        1 MOL      0.045827
    143 H62        -6.5530   -4.2230   -2.6430 hc        1 MOL      0.045827
    144 H63        -4.6540   -2.7730   -4.0420 hc        1 MOL     -0.009304
    145 H64        -6.4150   -2.5790   -4.2160 hc        1 MOL     -0.009304
    146 H65        -4.4690   -0.8050   -3.0500 h1        1 MOL      0.014276
    147 H66        -6.0640   -0.5160   -3.8510 h1        1 MOL      0.014276
    148 N13        -4.6700   -2.0580    0.5430 n         1 MOL     -0.017228
    149 C50        -3.9460   -2.1470    1.8390 c3        1 MOL     -0.411073
    150 C51        -4.7290   -1.4200    2.8660 c         1 MOL      0.572691
    151 O21        -4.6900   -1.8240    4.0350 o         1 MOL     -0.595287
    152 C52        -2.4920   -1.6030    1.6030 c3        1 MOL      0.021051
    153 C53        -1.5610   -2.2060    0.5570 c3        1 MOL     -0.235919
    154 C54        -0.2790   -1.4570    0.3350 c         1 MOL      0.788000
    155 O22        -0.0380   -0.3300    0.8000 o         1 MOL     -0.764248
    156 O23         0.5650   -1.9500   -0.5090 o         1 MOL     -0.764248
    157 H67        -4.4190   -1.3380   -0.1250 hn        1 MOL      0.108602
    158 H68        -3.9200   -3.2080    2.0390 h1        1 MOL      0.215697
    159 H69        -2.0530   -1.5600    2.6020 hc        1 MOL      0.081777
    160 H70        -2.4940   -0.5400    1.3500 hc        1 MOL      0.081777
    161 H71        -2.0500   -2.1340   -0.4130 hc        1 MOL      0.085889
    162 H72        -1.4000   -3.2110    0.9470 hc        1 MOL      0.085889
    163 N14        -5.5960   -0.4580    2.5650 n         1 MOL      0.028064
    164 C55        -6.5610    0.0500    3.5850 c3        1 MOL     -0.201409
    165 H73        -6.0360    0.6900    4.2930 h1        1 MOL      0.072496
    166 H74        -7.3460    0.6230    3.0900 h1        1 MOL      0.072496
    167 H75        -7.0060   -0.7910    4.1160 h1        1 MOL      0.072496
    168 H76        -5.7870   -0.2550    1.5970 hn        1 MOL      0.038454
    169 Ca1         2.1570    0.1170   -0.2100 Ca        1 MOL      1.624560
    170 O24         1.9370    0.1890    2.5110 oh        1 MOL     -0.748016
    171 H77         1.0370   -0.1170    2.5990 ho        1 MOL      0.364966
    172 H78         2.3160    0.0740    3.3930 ho        1 MOL      0.364966
    173 O25         4.8410    0.5940    1.1220 oh        1 MOL     -0.748016
    174 H79         4.5600   -0.3220    1.1220 ho        1 MOL      0.364966
    175 H80         5.2120    0.7230    1.9960 ho        1 MOL      0.364966
@<TRIPOS>BOND
     1    1    2 1   
     2    1    4 1   
     3    1    5 1   
     4    1    6 1   
     5    2    3 2   
     6    2    7 1   
     7    7    8 1   
     8    7   15 1   
     9    8    9 1   
    10    8   11 1   
    11    8   16 1   
    12    9   10 2   
    13    9   19 1   
    14   11   12 1   
    15   11   17 1   
    16   11   18 1   
    17   12   13 1   
    18   12   14 1   
    19   19   20 1   
    20   19   24 1   
    21   20   21 1   
    22   20   23 1   
    23   20   25 1   
    24   21   22 2   
    25   21   29 1   
    26   23   26 1   
    27   23   27 1   
    28   23   28 1   
    29   29   30 1   
    30   29   37 1   
    31   30   31 1   
    32   30   33 1   
    33   30   38 1   
    34   31   32 2   
    35   31   41 1   
    36   33   34 1   
    37   33   39 1   
    38   33   40 1   
    39   34   35 1   
    40   34   36 1   
    41   41   42 1   
    42   41   45 1   
    43   42   43 1   
    44   42   46 1   
    45   42   47 1   
    46   43   44 2   
    47   43   48 1   
    48   48   49 1   
    49   48   56 1   
    50   49   50 1   
    51   49   52 1   
    52   49   57 1   
    53   50   51 2   
    54   50   62 1   
    55   52   53 1   
    56   52   58 1   
    57   52   59 1   
    58   53   54 1   
    59   53   55 2   
    60   54   60 1   
    61   54   61 1   
    62   62   63 1   
    63   62   66 1   
    64   63   64 1   
    65   63   67 1   
    66   63   68 1   
    67   64   65 2   
    68   64   69 1   
    69   69   70 1   
    70   69   76 1   
    71   70   71 1   
    72   70   73 1   
    73   70   77 1   
    74   71   72 2   
    75   71   83 1   
    76   73   74 1   
    77   73   75 1   
    78   73   78 1   
    79   74   80 1   
    80   74   81 1   
    81   74   82 1   
    82   75   79 1   
    83   83   84 1   
    84   83   91 1   
    85   84   85 1   
    86   84   87 1   
    87   84   92 1   
    88   85   86 2   
    89   85  102 1   
    90   87   88 1   
    91   87   89 1   
    92   87   93 1   
    93   88   90 1   
    94   88   94 1   
    95   88   95 1   
    96   89   96 1   
    97   89   97 1   
    98   89   98 1   
    99   90   99 1   
   100   90  100 1   
   101   90  101 1   
   102  102  103 1   
   103  102  110 1   
   104  103  104 1   
   105  103  106 1   
   106  103  111 1   
   107  104  105 2   
   108  104  114 1   
   109  106  107 1   
   110  106  112 1   
   111  106  113 1   
   112  107  108 1   
   113  107  109 1   
   114  114  115 1   
   115  114  125 1   
   116  115  116 1   
   117  115  118 1   
   118  115  126 1   
   119  116  117 2   
   120  116  134 1   
   121  118  119 1   
   122  118  127 1   
   123  118  128 1   
   124  119  120 ar  
   125  119  121 ar  
   126  120  122 ar  
   127  120  129 1   
   128  121  123 ar  
   129  121  130 1   
   130  122  124 ar  
   131  122  131 1   
   132  123  124 ar  
   133  123  132 1   
   134  124  133 1   
   135  134  135 1   
   136  134  140 1   
   137  135  136 1   
   138  135  138 1   
   139  135  141 1   
   140  136  137 2   
   141  136  148 1   
   142  138  139 1   
   143  138  142 1   
   144  138  143 1   
   145  139  140 1   
   146  139  144 1   
   147  139  145 1   
   148  140  146 1   
   149  140  147 1   
   150  148  149 1   
   151  148  157 1   
   152  149  150 1   
   153  149  152 1   
   154  149  158 1   
   155  150  151 2   
   156  150  163 1   
   157  152  153 1   
   158  152  159 1   
   159  152  160 1   
   160  153  154 1   
   161  153  161 1   
   162  153  162 1   
   163  154  155 1   
   164  154  156 1   
   165  163  164 1   
   166  163  168 1   
   167  164  165 1   
   168  164  166 1   
   169  164  167 1   
   170  170  171 1   
   171  170  172 1   
   172  173  174 1   
   173  173  175 1   
@<TRIPOS>SUBSTRUCTURE
     1 MOL         1 TEMP              0 ****  ****    0 ROOT
