@<TRIPOS>MOLECULE
MOL
  189   185     1     0     0
SMALL
resp


@<TRIPOS>ATOM
      1 C1         -1.1310    1.7330    6.6310 c3        1 MOL     -0.354675
      2 C2         -1.3320    1.4990    5.1300 c         1 MOL      0.708058
      3 O1         -0.3080    1.6480    4.4330 o         1 MOL     -0.593392
      4 H1         -1.2650    2.7920    6.8540 hc        1 MOL      0.090042
      5 H2         -1.8620    1.1500    7.1920 hc        1 MOL      0.090042
      6 H3         -0.1250    1.4270    6.9150 hc        1 MOL      0.090042
      7 N1         -2.5620    1.2230    4.6270 n         1 MOL     -0.630467
      8 C3         -2.7610    1.2540    3.1970 c3        1 MOL      0.049399
      9 C4         -2.8400    2.7560    2.6800 c         1 MOL      0.643712
     10 O2         -3.6880    3.5430    3.1590 o         1 MOL     -0.569704
     11 C5         -4.0890    0.5450    2.9090 c3        1 MOL     -0.131721
     12 C6         -4.4950    0.5100    1.4350 c         1 MOL      0.845589
     13 O3         -3.5890    0.6910    0.5830 o         1 MOL     -0.675916
     14 O4         -5.6800    0.4640    1.2200 o         1 MOL     -0.675916
     15 H4         -3.3400    0.9750    5.2280 hn        1 MOL      0.357159
     16 H5         -1.9380    0.7510    2.6940 h1        1 MOL      0.030919
     17 H6         -4.8990    0.9590    3.5190 hc        1 MOL      0.015479
     18 H7         -3.9260   -0.5030    3.1670 hc        1 MOL      0.015479
     19 N2         -1.9550    3.1510    1.7530 n         1 MOL     -0.302370
     20 C7         -1.7800    4.5520    1.3330 c3        1 MOL     -0.170441
     21 C8         -2.8880    4.9650    0.3140 c         1 MOL      0.664589
     22 O5         -3.2270    6.1360    0.3180 o         1 MOL     -0.623082
     23 C9         -0.3080    4.7360    0.7540 c3        1 MOL     -0.099508
     24 C10         0.0130    6.1150    0.1950 c3        1 MOL      0.052057
     25 C11         1.4790    6.3740   -0.1670 c3        1 MOL     -0.192016
     26 C12         2.2050    6.2700    1.1710 c3        1 MOL      0.054873
     27 N3          3.6480    6.3090    0.9650 n4        1 MOL     -0.352798
     28 H8         -1.3940    2.4530    1.2870 hn        1 MOL      0.151837
     29 H9         -1.8280    5.2620    2.1510 h1        1 MOL      0.101912
     30 H10        -0.1530    3.9740    0.0040 hc        1 MOL      0.091657
     31 H11         0.3360    4.5180    1.6050 hc        1 MOL      0.091657
     32 H12        -0.2560    6.8960    0.9070 hc        1 MOL      0.037103
     33 H13        -0.5480    6.3940   -0.6850 hc        1 MOL      0.037103
     34 H14         1.5980    7.4050   -0.5170 hc        1 MOL      0.068546
     35 H15         1.7460    5.6870   -0.9660 hc        1 MOL      0.068546
     36 H16         1.9410    5.4700    1.8620 hx        1 MOL      0.087963
     37 H17         1.9340    7.2140    1.6350 hx        1 MOL      0.087963
     38 H18         4.0300    5.7150    0.2410 hn        1 MOL      0.317136
     39 H19         3.9050    7.2620    0.7410 hn        1 MOL      0.317136
     40 H20         4.1470    6.1990    1.8320 hn        1 MOL      0.317136
     41 N4         -3.3950    4.1050   -0.5170 n         1 MOL     -0.438048
     42 C13        -4.1100    4.4980   -1.7290 c3        1 MOL      0.091581
     43 C14        -5.5810    3.9600   -1.8120 c         1 MOL      0.362285
     44 O6         -6.3760    4.3760   -2.6900 o         1 MOL     -0.534014
     45 C15        -3.2550    4.2280   -2.9490 c3        1 MOL     -0.365796
     46 C16        -2.5520    2.8570   -2.9540 c         1 MOL      0.954479
     47 O7         -2.6410    2.0230   -2.0550 o         1 MOL     -0.776641
     48 O8         -1.7770    2.6230   -3.8720 o         1 MOL     -0.776641
     49 H21        -2.9160    3.2250   -0.5100 hn        1 MOL      0.226596
     50 H22        -4.2170    5.5780   -1.8580 h1        1 MOL      0.097991
     51 H23        -2.4810    4.9830   -2.9380 hc        1 MOL      0.098343
     52 H24        -3.9020    4.2280   -3.8260 hc        1 MOL      0.098343
     53 N5         -5.8970    3.0120   -0.9480 n         1 MOL     -0.006493
     54 C17        -7.2360    2.4160   -0.7780 c3        1 MOL     -0.368505
     55 C18        -7.4940    1.1350   -1.6600 c         1 MOL      0.742553
     56 O9         -8.3870    1.0430   -2.5270 o         1 MOL     -0.587148
     57 H25        -5.1680    2.6680   -0.3570 hn        1 MOL      0.122890
     58 H26        -7.9250    3.1430   -1.2100 h1        1 MOL      0.136791
     59 H27        -7.5260    2.2320    0.2600 h1        1 MOL      0.136791
     60 N6         -6.8410    0.0310   -1.2340 n         1 MOL     -0.467796
     61 C19        -7.0110   -1.2970   -1.9410 c3        1 MOL     -0.052686
     62 C20        -7.1220   -2.5110   -0.9660 c         1 MOL      0.538249
     63 O10        -7.5550   -3.5800   -1.3360 o         1 MOL     -0.549126
     64 C21        -5.9460   -1.4120   -3.0660 c3        1 MOL     -0.113548
     65 C22        -4.5060   -1.1640   -2.6300 c         1 MOL      0.689306
     66 O11        -3.6230   -0.7140   -3.3680 o         1 MOL     -0.657652
     67 O12        -4.1020   -1.5870   -1.5120 o         1 MOL     -0.657652
     68 H28        -6.0570    0.1830   -0.6180 hn        1 MOL      0.135209
     69 H29        -8.0010   -1.3050   -2.4000 h1        1 MOL      0.114794
     70 H30        -6.1010   -0.5660   -3.7350 hc        1 MOL      0.053960
     71 H31        -6.0380   -2.2840   -3.7220 hc        1 MOL      0.053960
     72 N7         -6.6840   -2.3380    0.2960 n         1 MOL     -0.219909
     73 C23        -6.6400   -3.4350    1.1930 c3        1 MOL     -0.251006
     74 C24        -5.4510   -4.3600    0.9990 c         1 MOL      0.591362
     75 O13        -5.3750   -5.4230    1.5730 o         1 MOL     -0.591507
     76 H32        -6.1370   -1.5160    0.4660 hn        1 MOL      0.219699
     77 H33        -7.5890   -3.9750    1.1680 h1        1 MOL      0.116592
     78 H34        -6.3650   -3.0650    2.1790 h1        1 MOL      0.116592
     79 N8         -4.4250   -3.9710    0.2130 n         1 MOL     -0.133981
     80 C25        -3.0540   -4.6110    0.2760 c3        1 MOL     -0.170316
     81 C26        -1.9130   -3.6510    0.5520 c         1 MOL      0.816333
     82 O14        -1.9850   -2.4340    0.6160 o         1 MOL     -0.733811
     83 C27        -2.8660   -5.4390   -1.0610 c3        1 MOL      0.147279
     84 C28        -3.9310   -6.4540   -1.2370 c3        1 MOL     -0.311730
     85 O15        -2.8020   -4.6210   -2.2290 oh        1 MOL     -0.563574
     86 H35        -4.4590   -3.1430   -0.3540 hn        1 MOL      0.127803
     87 H36        -3.0380   -5.3040    1.1230 h1        1 MOL      0.110033
     88 H37        -1.9180   -5.9460   -0.8900 h1        1 MOL      0.030385
     89 H38        -2.8050   -5.2170   -2.9780 ho        1 MOL      0.411775
     90 H39        -4.0630   -7.0430   -0.3310 hc        1 MOL      0.101309
     91 H40        -4.9360   -6.1410   -1.4960 hc        1 MOL      0.101309
     92 H41        -3.5870   -7.1830   -1.9660 hc        1 MOL      0.101309
     93 N9         -0.6770   -4.2240    0.5740 n         1 MOL     -0.629702
     94 C29         0.5090   -3.5490    1.0200 c3        1 MOL      0.092605
     95 C30         1.7170   -3.9610    0.1890 c         1 MOL      0.493276
     96 O16         2.2630   -5.0280    0.3800 o         1 MOL     -0.535162
     97 C31         0.8680   -3.7380    2.5710 c3        1 MOL      0.026997
     98 C32        -0.1720   -3.4970    3.6270 c3        1 MOL      0.120889
     99 C33         2.1200   -3.0630    3.0130 c3        1 MOL     -0.398298
    100 C34        -0.4860   -2.0330    3.9840 c3        1 MOL     -0.119677
    101 H42        -0.6180   -5.2120    0.3700 hn        1 MOL      0.306737
    102 H43         0.4150   -2.4850    0.8050 h1        1 MOL      0.142038
    103 H44         1.0430   -4.8160    2.6750 hc        1 MOL      0.022992
    104 H45         0.0390   -4.0090    4.5690 hc        1 MOL     -0.022724
    105 H46        -1.0880   -4.0100    3.3310 hc        1 MOL     -0.022724
    106 H47         2.9200   -3.3610    2.3350 hc        1 MOL      0.096345
    107 H48         2.0770   -1.9720    2.9930 hc        1 MOL      0.096345
    108 H49         2.2570   -3.2580    4.0790 hc        1 MOL      0.096345
    109 H50        -1.1730   -2.0310    4.8360 hc        1 MOL      0.035572
    110 H51         0.4560   -1.5840    4.2990 hc        1 MOL      0.035572
    111 H52        -0.8260   -1.5070    3.0950 hc        1 MOL      0.035572
    112 N10         2.2340   -2.9640   -0.5340 n         1 MOL     -0.167880
    113 C35         3.5100   -2.9260   -1.2340 c3        1 MOL     -0.281754
    114 C36         4.6860   -2.6770   -0.3100 c         1 MOL      0.440742
    115 O17         4.5450   -2.1220    0.7710 o         1 MOL     -0.334307
    116 C37         3.5110   -1.7800   -2.3360 c3        1 MOL      0.332100
    117 C38         2.3540   -1.9780   -3.2990 c3        1 MOL     -0.242755
    118 O18         3.3350   -0.5700   -1.6730 oh        1 MOL     -0.535381
    119 H53         1.5470   -2.2210   -0.6220 hn        1 MOL      0.151576
    120 H54         3.5690   -3.8560   -1.7980 h1        1 MOL      0.114263
    121 H55         4.3960   -1.8360   -2.9700 h1        1 MOL      0.005922
    122 H56         2.3930   -0.4290   -1.5900 ho        1 MOL      0.354605
    123 H57         2.3520   -1.0900   -3.9310 hc        1 MOL      0.065049
    124 H58         2.4700   -2.9050   -3.8630 hc        1 MOL      0.065049
    125 H59         1.3540   -1.9480   -2.8780 hc        1 MOL      0.065049
    126 N11         5.8820   -2.9710   -0.8130 n         1 MOL     -0.231736
    127 C39         7.2160   -2.7740   -0.1830 c3        1 MOL     -0.272544
    128 C40         7.4030   -1.2630    0.3290 c         1 MOL      0.551276
    129 O19         7.9870   -1.0120    1.4200 o         1 MOL     -0.497567
    130 C41         8.3720   -3.1640   -1.0650 c3        1 MOL      0.447722
    131 C42         8.5070   -4.6210   -1.5480 c3        1 MOL     -0.220539
    132 O20         8.5070   -2.3290   -2.2130 oh        1 MOL     -0.739973
    133 H60         5.9000   -3.5320   -1.6620 hn        1 MOL      0.249257
    134 H61         7.2290   -3.2480    0.8020 h1        1 MOL      0.135260
    135 H62         9.2710   -2.9940   -0.4570 h1        1 MOL     -0.010544
    136 H63         9.2680   -2.6440   -2.7150 ho        1 MOL      0.425513
    137 H64         9.2700   -4.7530   -2.3060 hc        1 MOL      0.061729
    138 H65         8.8050   -5.2750   -0.7270 hc        1 MOL      0.061729
    139 H66         7.5280   -4.9170   -1.9120 hc        1 MOL      0.061729
    140 N12         6.8710   -0.2950   -0.4720 n         1 MOL     -0.407439
    141 C43         6.9100    1.1420   -0.2150 c3        1 MOL     -0.044698
    142 C44         6.0310    1.5140    1.0150 c         1 MOL      0.416554
    143 O21         6.3680    2.4400    1.7310 o         1 MOL     -0.535329
    144 C45         6.5600    1.8380   -1.6000 c3        1 MOL     -0.322324
    145 C46         7.5560    1.6650   -2.6670 c3        1 MOL      0.112615
    146 C47         7.4280    2.7890   -3.7660 c3        1 MOL     -0.132714
    147 C48         8.5670    2.5860   -4.7750 c3        1 MOL     -0.271100
    148 N13         9.9990    2.8800   -4.2600 n4        1 MOL     -0.110554
    149 H67         6.5180   -0.5850   -1.3770 hn        1 MOL      0.273947
    150 H68         7.9260    1.3680    0.0960 h1        1 MOL      0.106021
    151 H69         6.5350    2.9080   -1.3690 hc        1 MOL      0.110552
    152 H70         5.5610    1.5990   -1.9430 hc        1 MOL      0.110552
    153 H71         7.4040    0.7490   -3.2320 hc        1 MOL      0.050189
    154 H72         8.5570    1.7460   -2.2280 hc        1 MOL      0.050189
    155 H73         7.4180    3.7910   -3.3370 hc        1 MOL      0.095862
    156 H74         6.4790    2.5820   -4.2650 hc        1 MOL      0.095862
    157 H75         8.4640    3.3970   -5.4830 hx        1 MOL      0.175768
    158 H76         8.4300    1.5850   -5.1800 hx        1 MOL      0.175768
    159 H77        10.0890    3.7620   -3.7870 hn        1 MOL      0.234284
    160 H78        10.2520    2.1630   -3.6000 hn        1 MOL      0.234284
    161 H79        10.7640    2.8010   -4.9180 hn        1 MOL      0.234284
    162 N14         4.8800    0.8700    1.0790 n         1 MOL     -0.088353
    163 C49         3.9090    1.2420    2.1810 c3        1 MOL     -0.328280
    164 C50         4.2600    0.6520    3.5560 c         1 MOL      0.552587
    165 O22         3.8600    1.2760    4.5470 o         1 MOL     -0.539571
    166 C51         2.5010    0.7790    1.6950 c3        1 MOL      0.167818
    167 C52         1.9470    1.6340    0.5150 c3        1 MOL     -0.063976
    168 C53         0.7580    0.8520    0.0020 c         1 MOL      0.589922
    169 O23         0.8600   -0.1720   -0.7100 o         1 MOL     -0.667688
    170 O24        -0.4190    1.3250    0.1430 o         1 MOL     -0.667688
    171 H80         4.6160    0.1230    0.4420 hn        1 MOL      0.086420
    172 H81         3.7430    2.3130    2.3250 h1        1 MOL      0.137714
    173 H82         1.7790    0.7850    2.5180 hc        1 MOL      0.030845
    174 H83         2.6050   -0.2530    1.3650 hc        1 MOL      0.030845
    175 H84         2.6310    1.7690   -0.3270 hc        1 MOL      0.004997
    176 H85         1.6320    2.6430    0.7910 hc        1 MOL      0.004997
    177 N15         4.9460   -0.4860    3.6000 n         1 MOL     -0.182875
    178 C54         5.1750   -1.3060    4.8160 c3        1 MOL     -0.287912
    179 H86         5.3550   -2.3420    4.5280 h1        1 MOL      0.119418
    180 H87         6.0420   -0.9240    5.3550 h1        1 MOL      0.119418
    181 H88         4.2960   -1.2570    5.4590 h1        1 MOL      0.119418
    182 H89         5.1580   -0.9590    2.7280 hn        1 MOL      0.198371
    183 Ca1        -1.8990   -0.2670   -1.1320 Ca        1 MOL      1.752969
    184 O25        -1.3090   -2.4780   -2.5580 oh        1 MOL     -0.853292
    185 H90        -1.8840   -3.1800   -2.2620 ho        1 MOL      0.402144
    186 H91        -1.6220   -2.2760   -3.4430 ho        1 MOL      0.402144
    187 O26        -0.6800    0.3450   -3.5460 oh        1 MOL     -0.853292
    188 H92        -1.0440    1.2240   -3.5990 ho        1 MOL      0.402144
    189 H93         0.0090    0.3330   -4.2140 ho        1 MOL      0.402144
@<TRIPOS>BOND
     1    1    2 1   
     2    1    4 1   
     3    1    5 1   
     4    1    6 1   
     5    2    3 2   
     6    2    7 1   
     7    7    8 1   
     8    7   15 1   
     9    8    9 1   
    10    8   11 1   
    11    8   16 1   
    12    9   10 2   
    13    9   19 1   
    14   11   12 1   
    15   11   17 1   
    16   11   18 1   
    17   12   13 1   
    18   12   14 1   
    19   19   20 1   
    20   19   28 1   
    21   20   21 1   
    22   20   23 1   
    23   20   29 1   
    24   21   22 2   
    25   21   41 1   
    26   23   24 1   
    27   23   30 1   
    28   23   31 1   
    29   24   25 1   
    30   24   32 1   
    31   24   33 1   
    32   25   26 1   
    33   25   34 1   
    34   25   35 1   
    35   26   27 1   
    36   26   36 1   
    37   26   37 1   
    38   27   38 1   
    39   27   39 1   
    40   27   40 1   
    41   41   42 1   
    42   41   49 1   
    43   42   43 1   
    44   42   45 1   
    45   42   50 1   
    46   43   44 2   
    47   43   53 1   
    48   45   46 1   
    49   45   51 1   
    50   45   52 1   
    51   46   47 1   
    52   46   48 1   
    53   53   54 1   
    54   53   57 1   
    55   54   55 1   
    56   54   58 1   
    57   54   59 1   
    58   55   56 2   
    59   55   60 1   
    60   60   61 1   
    61   60   68 1   
    62   61   62 1   
    63   61   64 1   
    64   61   69 1   
    65   62   63 2   
    66   62   72 1   
    67   64   65 1   
    68   64   70 1   
    69   64   71 1   
    70   65   66 1   
    71   65   67 1   
    72   72   73 1   
    73   72   76 1   
    74   73   74 1   
    75   73   77 1   
    76   73   78 1   
    77   74   75 2   
    78   74   79 1   
    79   79   80 1   
    80   79   86 1   
    81   80   81 1   
    82   80   83 1   
    83   80   87 1   
    84   81   82 2   
    85   81   93 1   
    86   83   84 1   
    87   83   85 1   
    88   83   88 1   
    89   84   90 1   
    90   84   91 1   
    91   84   92 1   
    92   85   89 1   
    93   93   94 1   
    94   93  101 1   
    95   94   95 1   
    96   94   97 1   
    97   94  102 1   
    98   95   96 2   
    99   95  112 1   
   100   97   98 1   
   101   97   99 1   
   102   97  103 1   
   103   98  100 1   
   104   98  104 1   
   105   98  105 1   
   106   99  106 1   
   107   99  107 1   
   108   99  108 1   
   109  100  109 1   
   110  100  110 1   
   111  100  111 1   
   112  112  113 1   
   113  112  119 1   
   114  113  114 1   
   115  113  116 1   
   116  113  120 1   
   117  114  115 2   
   118  114  126 1   
   119  116  117 1   
   120  116  118 1   
   121  116  121 1   
   122  117  123 1   
   123  117  124 1   
   124  117  125 1   
   125  118  122 1   
   126  126  127 1   
   127  126  133 1   
   128  127  128 1   
   129  127  130 1   
   130  127  134 1   
   131  128  129 2   
   132  128  140 1   
   133  130  131 1   
   134  130  132 1   
   135  130  135 1   
   136  131  137 1   
   137  131  138 1   
   138  131  139 1   
   139  132  136 1   
   140  140  141 1   
   141  140  149 1   
   142  141  142 1   
   143  141  144 1   
   144  141  150 1   
   145  142  143 2   
   146  142  162 1   
   147  144  145 1   
   148  144  151 1   
   149  144  152 1   
   150  145  146 1   
   151  145  153 1   
   152  145  154 1   
   153  146  147 1   
   154  146  155 1   
   155  146  156 1   
   156  147  148 1   
   157  147  157 1   
   158  147  158 1   
   159  148  159 1   
   160  148  160 1   
   161  148  161 1   
   162  162  163 1   
   163  162  171 1   
   164  163  164 1   
   165  163  166 1   
   166  163  172 1   
   167  164  165 2   
   168  164  177 1   
   169  166  167 1   
   170  166  173 1   
   171  166  174 1   
   172  167  168 1   
   173  167  175 1   
   174  167  176 1   
   175  168  169 1   
   176  168  170 1   
   177  177  178 1   
   178  177  182 1   
   179  178  179 1   
   180  178  180 1   
   181  178  181 1   
   182  184  185 1   
   183  184  186 1   
   184  187  188 1   
   185  187  189 1   
@<TRIPOS>SUBSTRUCTURE
     1 MOL         1 TEMP              0 ****  ****    0 ROOT
