@<TRIPOS>MOLECULE
MOL
  189   185     1     0     0
SMALL
resp


@<TRIPOS>ATOM
      1 C1          0.6460    3.9670    5.6410 c3        1 MOL     -0.398542
      2 C2         -0.2740    3.5880    4.4340 c         1 MOL      0.685257
      3 O1         -0.6480    2.4230    4.2700 o         1 MOL     -0.590762
      4 H1          1.4010    3.1930    5.7770 hc        1 MOL      0.104626
      5 H2          1.1350    4.9200    5.4400 hc        1 MOL      0.104626
      6 H3          0.0430    4.0500    6.5450 hc        1 MOL      0.104626
      7 N1         -0.6140    4.5410    3.5510 n         1 MOL     -0.558729
      8 C3         -1.3520    4.1860    2.3490 c3        1 MOL      0.180974
      9 C4         -1.0460    5.2230    1.2180 c         1 MOL      0.481291
     10 O2         -0.9870    6.4420    1.3990 o         1 MOL     -0.572534
     11 C5         -2.8290    4.1890    2.6840 c3        1 MOL     -0.436611
     12 C6         -3.7400    3.4830    1.6310 c         1 MOL      0.760755
     13 O3         -4.9530    3.6190    1.7390 o         1 MOL     -0.667824
     14 O4         -3.2150    2.6790    0.7490 o         1 MOL     -0.667824
     15 H4         -0.3260    5.4940    3.7270 hn        1 MOL      0.303518
     16 H5         -1.1020    3.1790    2.0150 h1        1 MOL      0.030495
     17 H6         -3.0740    5.2480    2.7500 hc        1 MOL      0.117725
     18 H7         -3.0750    3.6750    3.6120 hc        1 MOL      0.117725
     19 N2         -0.9760    4.6190    0.0360 n         1 MOL     -0.290254
     20 C7         -0.5580    5.0610   -1.3020 c3        1 MOL     -0.137487
     21 C8         -1.6440    4.8950   -2.3570 c         1 MOL      0.701452
     22 O5         -1.5870    5.5840   -3.3550 o         1 MOL     -0.620320
     23 C9          0.8500    4.5910   -1.7460 c3        1 MOL      0.299450
     24 C10         1.8530    5.2150   -0.7210 c3        1 MOL     -0.004858
     25 C11         1.2320    4.8810   -3.2260 c3        1 MOL     -0.279935
     26 C12         3.2400    4.6410   -0.7510 c3        1 MOL     -0.141560
     27 H8         -0.9720    3.6070    0.1420 hn        1 MOL      0.344750
     28 H9         -0.5090    6.1500   -1.2380 h1        1 MOL      0.050013
     29 H10         0.9220    3.5120   -1.6490 hc        1 MOL     -0.000208
     30 H11         1.5500    5.0460    0.3200 hc        1 MOL     -0.014729
     31 H12         1.8550    6.2950   -0.8770 hc        1 MOL     -0.014729
     32 H13         0.4720    4.3960   -3.8490 hc        1 MOL      0.051193
     33 H14         1.3290    5.9360   -3.4800 hc        1 MOL      0.051193
     34 H15         2.2240    4.4510   -3.3530 hc        1 MOL      0.051193
     35 H16         3.7300    5.0660    0.1230 hc        1 MOL      0.036737
     36 H17         3.1790    3.5440   -0.7590 hc        1 MOL      0.036737
     37 H18         3.8080    4.9510   -1.6290 hc        1 MOL      0.036737
     38 N3         -2.6630    4.0830   -2.1140 n         1 MOL     -0.490080
     39 C13        -3.7300    3.8270   -3.1700 c3        1 MOL      0.112138
     40 C14        -5.1150    3.5860   -2.6660 c         1 MOL      0.320119
     41 O6         -6.0730    3.8910   -3.3840 o         1 MOL     -0.559604
     42 C15        -3.2900    2.5360   -3.9820 c3        1 MOL     -0.299997
     43 C16        -2.7370    1.3980   -3.2270 c         1 MOL      0.842027
     44 O7         -2.9110    1.3160   -2.0190 o         1 MOL     -0.725481
     45 O8         -2.1960    0.5120   -3.8640 o         1 MOL     -0.725481
     46 H19        -2.7050    3.5960   -1.2290 hn        1 MOL      0.176450
     47 H20        -3.7270    4.5930   -3.9410 h1        1 MOL      0.086553
     48 H21        -2.4870    2.8310   -4.6580 hc        1 MOL      0.083005
     49 H22        -4.1500    2.2050   -4.5510 hc        1 MOL      0.083005
     50 N4         -5.4020    2.9930   -1.4980 n         1 MOL      0.160524
     51 C17        -6.7200    2.7860   -0.9290 c3        1 MOL     -0.237922
     52 C18        -7.2710    1.4420   -1.4580 c         1 MOL      0.723569
     53 O9         -8.2740    1.4690   -2.1160 o         1 MOL     -0.583360
     54 H23        -4.6100    2.6810   -0.9520 hn        1 MOL     -0.038575
     55 H24        -7.4420    3.5900   -1.0910 h1        1 MOL      0.080414
     56 H25        -6.6390    2.6270    0.1490 h1        1 MOL      0.080414
     57 N5         -6.6660    0.2320   -1.0870 n         1 MOL     -0.748167
     58 C19        -7.1170   -1.0520   -1.6290 c3        1 MOL      0.312338
     59 C20        -7.4130   -1.9920   -0.4990 c         1 MOL      0.253667
     60 O10        -7.8530   -3.1430   -0.7710 o         1 MOL     -0.512113
     61 C21        -5.9970   -1.6140   -2.5170 c3        1 MOL     -0.249921
     62 C22        -4.6110   -1.7310   -1.9330 c         1 MOL      0.666162
     63 O11        -4.2670   -1.2860   -0.8170 o         1 MOL     -0.639896
     64 O12        -3.8030   -2.4360   -2.5660 o         1 MOL     -0.639896
     65 H26        -5.8160    0.2770   -0.5320 hn        1 MOL      0.333968
     66 H27        -7.9990   -0.8940   -2.2490 h1        1 MOL      0.061048
     67 H28        -5.8470   -0.8960   -3.3270 hc        1 MOL      0.076702
     68 H29        -6.2980   -2.5650   -2.9730 hc        1 MOL      0.076702
     69 N6         -7.2300   -1.6140    0.8170 n         1 MOL     -0.097111
     70 C23        -7.4270   -2.4560    2.0020 c3        1 MOL     -0.271810
     71 C24        -6.1960   -3.3670    2.2390 c         1 MOL      0.489120
     72 O13        -6.3720   -4.3550    2.9030 o         1 MOL     -0.562331
     73 H30        -7.1830   -0.6190    0.9680 hn        1 MOL      0.166822
     74 H31        -8.2820   -3.0820    1.7480 h1        1 MOL      0.124642
     75 H32        -7.7110   -1.7350    2.7730 h1        1 MOL      0.124642
     76 N7         -5.0870   -3.2190    1.5350 n         1 MOL     -0.070031
     77 C25        -3.8670   -4.1060    1.5680 c3        1 MOL     -0.236835
     78 C26        -2.5590   -3.2630    1.9120 c         1 MOL      0.480527
     79 O14        -2.5770   -2.0960    1.4370 o         1 MOL     -0.546690
     80 C27        -3.6010   -4.6920    0.1860 c3        1 MOL      0.264812
     81 C28        -4.7450   -5.4760   -0.4360 c3        1 MOL     -0.257016
     82 C29        -4.4120   -6.0370   -1.7720 c         1 MOL      0.498772
     83 N8         -4.3640   -5.1600   -2.7700 n         1 MOL     -0.638932
     84 O15        -4.0950   -7.2740   -1.9190 o         1 MOL     -0.601010
     85 H33        -4.8790   -2.3690    1.0290 hn        1 MOL      0.081474
     86 H34        -4.0350   -5.0280    2.1350 h1        1 MOL      0.081722
     87 H35        -2.7310   -5.3500    0.2280 hc        1 MOL     -0.014153
     88 H36        -3.2470   -3.8810   -0.4480 hc        1 MOL     -0.014153
     89 H37        -5.6520   -4.8680   -0.4630 hc        1 MOL      0.096874
     90 H38        -5.0010   -6.2790    0.2410 hc        1 MOL      0.096874
     91 H39        -4.4470   -4.1690   -2.5970 hn        1 MOL      0.321672
     92 H40        -4.0220   -5.5970   -3.6200 hn        1 MOL      0.321672
     93 N9         -1.4760   -3.8390    2.4000 n         1 MOL     -0.522019
     94 C30        -0.2030   -3.1850    2.5340 c3        1 MOL      0.235081
     95 C31         0.7180   -3.6870    1.4430 c         1 MOL      0.650452
     96 O16         0.8290   -4.8590    1.2300 o         1 MOL     -0.596701
     97 C32         0.4150   -3.2940    3.9310 c3        1 MOL      0.152820
     98 C33         0.7260   -4.7750    4.3000 c3        1 MOL     -0.221357
     99 C34         1.6450   -2.4750    4.1060 c3        1 MOL     -0.221357
    100 H41        -1.4290   -4.8370    2.5690 hn        1 MOL      0.313475
    101 H42        -0.3140   -2.1120    2.3860 h1        1 MOL      0.062728
    102 H43        -0.3970   -2.9450    4.5700 hc        1 MOL     -0.015204
    103 H44        -0.0670   -5.3830    3.8780 hc        1 MOL      0.038605
    104 H45         1.6150   -5.1460    3.7910 hc        1 MOL      0.038605
    105 H46         0.8630   -4.9490    5.3640 hc        1 MOL      0.038605
    106 H47         2.3130   -2.8440    3.3240 hc        1 MOL      0.038605
    107 H48         1.4200   -1.4210    3.9460 hc        1 MOL      0.038605
    108 H49         2.0590   -2.4770    5.1120 hc        1 MOL      0.038605
    109 N10         1.2910   -2.7530    0.6740 n         1 MOL     -0.474073
    110 C35         2.4150   -2.8020   -0.2380 c3        1 MOL      0.367645
    111 C36         3.8460   -2.5520    0.3790 c         1 MOL      0.105970
    112 O17         3.9610   -1.9200    1.4260 o         1 MOL     -0.209382
    113 C37         2.0610   -1.7800   -1.3470 c3        1 MOL     -0.324671
    114 C38         3.2000   -1.4770   -2.3390 c         1 MOL      0.739240
    115 N11         3.3140   -2.2600   -3.2950 n         1 MOL     -0.743328
    116 O18         3.9370   -0.5480   -2.1390 o         1 MOL     -0.641290
    117 H50         1.0610   -1.7810    0.8310 hn        1 MOL      0.176564
    118 H51         2.4390   -3.7730   -0.7200 h1        1 MOL     -0.008850
    119 H52         1.7190   -0.7750   -1.0910 hc        1 MOL      0.116420
    120 H53         1.2390   -2.1740   -1.9430 hc        1 MOL      0.116420
    121 H54         2.6990   -3.0650   -3.4070 hn        1 MOL      0.353393
    122 H55         4.0080   -1.9750   -3.9720 hn        1 MOL      0.353393
    123 N12         4.9780   -3.0360   -0.2750 n         1 MOL     -0.296983
    124 C39         6.3680   -2.9220    0.2730 c3        1 MOL      0.245113
    125 C40         6.6270   -1.4770    0.6560 c         1 MOL      0.277888
    126 O19         7.1570   -1.2700    1.7120 o         1 MOL     -0.558246
    127 C41         7.4020   -3.4480   -0.6940 c3        1 MOL     -0.212877
    128 C42         7.1250   -3.1400   -2.1780 ca        1 MOL     -0.036213
    129 C43         6.3350   -4.0530   -2.9080 ca        1 MOL     -0.068337
    130 C44         7.6410   -1.9480   -2.6920 ca        1 MOL     -0.068337
    131 C45         6.1110   -3.8170   -4.2540 ca        1 MOL     -0.326713
    132 C46         7.3070   -1.6970   -4.0370 ca        1 MOL     -0.326713
    133 C47         6.5670   -2.6060   -4.8280 ca        1 MOL      0.416373
    134 O20         6.1350   -2.1430   -6.0600 oh        1 MOL     -0.622729
    135 H56         4.8030   -3.5330   -1.1340 hn        1 MOL      0.138966
    136 H57         6.4770   -3.4650    1.2060 h1        1 MOL      0.019750
    137 H58         7.3200   -4.5280   -0.5770 hc        1 MOL      0.071674
    138 H59         8.3780   -3.1060   -0.3580 hc        1 MOL      0.071674
    139 H60         5.9400   -4.9460   -2.4380 ha        1 MOL      0.121175
    140 H61         8.1850   -1.2330   -2.0920 ha        1 MOL      0.121175
    141 H62         5.7100   -4.5450   -4.9340 ha        1 MOL      0.147713
    142 H63         7.5780   -0.7180   -4.4130 ha        1 MOL      0.147713
    143 H64         6.3700   -1.2530   -6.3210 ho        1 MOL      0.445172
    144 N13         6.1920   -0.5950   -0.1730 n         1 MOL      0.010913
    145 C48         6.3950    0.9140   -0.0220 c3        1 MOL     -0.130800
    146 C49         5.5830    1.5400    1.1650 c         1 MOL      0.454522
    147 O21         6.0190    2.4950    1.7430 o         1 MOL     -0.509963
    148 C50         6.0890    1.7200   -1.2650 c3        1 MOL      0.036368
    149 C51         7.0740    2.8320   -1.4030 c3        1 MOL     -0.049267
    150 C52         8.5200    2.4170   -1.5430 c         1 MOL      0.541040
    151 O22         9.4150    3.0500   -0.8820 o         1 MOL     -0.681083
    152 O23         8.7610    1.4210   -2.3140 o         1 MOL     -0.681083
    153 H65         5.6620   -0.9300   -0.9730 hn        1 MOL      0.309584
    154 H66         7.3910    1.1060    0.3750 h1        1 MOL      0.153066
    155 H67         5.0790    2.1370   -1.2140 hc        1 MOL     -0.000745
    156 H68         6.1610    0.9670   -2.0410 hc        1 MOL     -0.000745
    157 H69         7.0020    3.4350   -0.4930 hc        1 MOL     -0.014801
    158 H70         6.7620    3.5380   -2.1690 hc        1 MOL     -0.014801
    159 N14         4.5780    0.8680    1.6890 n         1 MOL     -0.285804
    160 C53         3.8360    1.2940    2.8020 c3        1 MOL     -0.041637
    161 C54         4.3750    0.6450    4.0450 c         1 MOL      0.493074
    162 O24         4.3030    1.3010    5.0270 o         1 MOL     -0.586572
    163 C55         2.2840    1.0760    2.6000 c3        1 MOL     -0.107339
    164 C56         1.7970    1.7330    1.2370 c3        1 MOL      0.281167
    165 C57         0.4930    1.1570    0.7950 c         1 MOL      0.719076
    166 O25        -0.1940    1.9280    0.0340 o         1 MOL     -0.802932
    167 O26         0.0550    0.0270    1.1660 o         1 MOL     -0.802932
    168 H71         4.3500   -0.0400    1.3080 hn        1 MOL      0.053838
    169 H72         3.9130    2.3690    2.9920 h1        1 MOL      0.078780
    170 H73         1.7160    1.6070    3.3620 hc        1 MOL      0.039125
    171 H74         2.1420   -0.0090    2.5730 hc        1 MOL      0.039125
    172 H75         2.5190    1.4840    0.4660 hc        1 MOL     -0.040564
    173 H76         1.8050    2.8110    1.3450 hc        1 MOL     -0.040564
    174 N15         4.9610   -0.5200    3.9610 n         1 MOL     -0.006894
    175 C58         5.4850   -1.2860    5.0090 c3        1 MOL     -0.211921
    176 H77         6.0010   -2.1540    4.6000 h1        1 MOL      0.068963
    177 H78         6.1880   -0.6830    5.5840 h1        1 MOL      0.068963
    178 H79         4.6750   -1.6180    5.6570 h1        1 MOL      0.068963
    179 H80         4.9080   -1.0590    3.1070 hn        1 MOL      0.095132
    180 Ca1        -2.5210    0.2460    0.3010 Ca        1 MOL      1.785700
    181 O27        -2.3700    0.8140    2.9100 oh        1 MOL     -0.867528
    182 H81        -1.9930    1.4860    3.4850 ho        1 MOL      0.406561
    183 H82        -2.4610    0.0460    3.4740 ho        1 MOL      0.406561
    184 O28        -1.4980   -1.2340   -1.7050 oh        1 MOL     -0.867528
    185 H83        -2.0690   -1.9960   -1.5990 ho        1 MOL      0.406561
    186 H84        -1.8710   -0.7560   -2.4410 ho        1 MOL      0.406561
    187 O29        -5.0760    0.6550    1.4780 oh        1 MOL     -0.867528
    188 H85        -5.0480    1.6010    1.6160 ho        1 MOL      0.406561
    189 H86        -5.7660    0.3430    2.0620 ho        1 MOL      0.406561
@<TRIPOS>BOND
     1    1    2 1   
     2    1    4 1   
     3    1    5 1   
     4    1    6 1   
     5    2    3 2   
     6    2    7 1   
     7    7    8 1   
     8    7   15 1   
     9    8    9 1   
    10    8   11 1   
    11    8   16 1   
    12    9   10 2   
    13    9   19 1   
    14   11   12 1   
    15   11   17 1   
    16   11   18 1   
    17   12   13 1   
    18   12   14 1   
    19   19   20 1   
    20   19   27 1   
    21   20   21 1   
    22   20   23 1   
    23   20   28 1   
    24   21   22 2   
    25   21   38 1   
    26   23   24 1   
    27   23   25 1   
    28   23   29 1   
    29   24   26 1   
    30   24   30 1   
    31   24   31 1   
    32   25   32 1   
    33   25   33 1   
    34   25   34 1   
    35   26   35 1   
    36   26   36 1   
    37   26   37 1   
    38   38   39 1   
    39   38   46 1   
    40   39   40 1   
    41   39   42 1   
    42   39   47 1   
    43   40   41 2   
    44   40   50 1   
    45   42   43 1   
    46   42   48 1   
    47   42   49 1   
    48   43   44 1   
    49   43   45 1   
    50   50   51 1   
    51   50   54 1   
    52   51   52 1   
    53   51   55 1   
    54   51   56 1   
    55   52   53 2   
    56   52   57 1   
    57   57   58 1   
    58   57   65 1   
    59   58   59 1   
    60   58   61 1   
    61   58   66 1   
    62   59   60 2   
    63   59   69 1   
    64   61   62 1   
    65   61   67 1   
    66   61   68 1   
    67   62   63 1   
    68   62   64 1   
    69   69   70 1   
    70   69   73 1   
    71   70   71 1   
    72   70   74 1   
    73   70   75 1   
    74   71   72 2   
    75   71   76 1   
    76   76   77 1   
    77   76   85 1   
    78   77   78 1   
    79   77   80 1   
    80   77   86 1   
    81   78   79 2   
    82   78   93 1   
    83   80   81 1   
    84   80   87 1   
    85   80   88 1   
    86   81   82 1   
    87   81   89 1   
    88   81   90 1   
    89   82   83 1   
    90   82   84 2   
    91   83   91 1   
    92   83   92 1   
    93   93   94 1   
    94   93  100 1   
    95   94   95 1   
    96   94   97 1   
    97   94  101 1   
    98   95   96 2   
    99   95  109 1   
   100   97   98 1   
   101   97   99 1   
   102   97  102 1   
   103   98  103 1   
   104   98  104 1   
   105   98  105 1   
   106   99  106 1   
   107   99  107 1   
   108   99  108 1   
   109  109  110 1   
   110  109  117 1   
   111  110  111 1   
   112  110  113 1   
   113  110  118 1   
   114  111  112 2   
   115  111  123 1   
   116  113  114 1   
   117  113  119 1   
   118  113  120 1   
   119  114  115 1   
   120  114  116 2   
   121  115  121 1   
   122  115  122 1   
   123  123  124 1   
   124  123  135 1   
   125  124  125 1   
   126  124  127 1   
   127  124  136 1   
   128  125  126 2   
   129  125  144 1   
   130  127  128 1   
   131  127  137 1   
   132  127  138 1   
   133  128  129 ar  
   134  128  130 ar  
   135  129  131 ar  
   136  129  139 1   
   137  130  132 ar  
   138  130  140 1   
   139  131  133 ar  
   140  131  141 1   
   141  132  133 ar  
   142  132  142 1   
   143  133  134 1   
   144  134  143 1   
   145  144  145 1   
   146  144  153 1   
   147  145  146 1   
   148  145  148 1   
   149  145  154 1   
   150  146  147 2   
   151  146  159 1   
   152  148  149 1   
   153  148  155 1   
   154  148  156 1   
   155  149  150 1   
   156  149  157 1   
   157  149  158 1   
   158  150  151 1   
   159  150  152 1   
   160  159  160 1   
   161  159  168 1   
   162  160  161 1   
   163  160  163 1   
   164  160  169 1   
   165  161  162 2   
   166  161  174 1   
   167  163  164 1   
   168  163  170 1   
   169  163  171 1   
   170  164  165 1   
   171  164  172 1   
   172  164  173 1   
   173  165  166 1   
   174  165  167 1   
   175  174  175 1   
   176  174  179 1   
   177  175  176 1   
   178  175  177 1   
   179  175  178 1   
   180  181  182 1   
   181  181  183 1   
   182  184  185 1   
   183  184  186 1   
   184  187  188 1   
   185  187  189 1   
@<TRIPOS>SUBSTRUCTURE
     1 MOL         1 TEMP              0 ****  ****    0 ROOT
