@<TRIPOS>MOLECULE
MOL
  175   173     1     0     0
SMALL
resp


@<TRIPOS>ATOM
      1 C1          0.1840    4.3520    5.2770 c3        1 MOL     -0.424428
      2 C2         -0.3570    4.1790    3.8530 c         1 MOL      0.724919
      3 O1          0.3540    4.3000    2.8870 o         1 MOL     -0.521069
      4 H1         -0.6450    4.3360    5.9840 hc        1 MOL      0.097518
      5 H2          0.8720    3.5390    5.5070 hc        1 MOL      0.097518
      6 H3          0.7070    5.3050    5.3540 hc        1 MOL      0.097518
      7 N1         -1.6650    3.9290    3.8240 n         1 MOL     -0.612631
      8 C3         -2.3410    3.6770    2.5730 c3        1 MOL      0.226674
      9 C4         -2.5760    4.8610    1.6250 c         1 MOL      0.635519
     10 O2         -2.5850    6.0390    2.0780 o         1 MOL     -0.592853
     11 C5         -3.6740    2.9250    2.8060 c3        1 MOL     -0.542162
     12 C6         -4.3450    2.3350    1.5140 c         1 MOL      0.824165
     13 O3         -5.5580    2.0140    1.6500 o         1 MOL     -0.650037
     14 O4         -3.6760    2.1520    0.4430 o         1 MOL     -0.650037
     15 H4         -2.1310    3.6700    4.6790 hn        1 MOL      0.341481
     16 H5         -1.7520    2.9950    1.9500 h1        1 MOL     -0.019643
     17 H6         -4.3720    3.6340    3.2440 hc        1 MOL      0.115305
     18 H7         -3.4720    2.1110    3.4980 hc        1 MOL      0.115305
     19 N2         -2.6600    4.6190    0.3110 n         1 MOL     -0.637737
     20 C7         -2.9420    5.5720   -0.7660 c3        1 MOL      0.286890
     21 C8         -3.8570    5.0530   -1.9070 c         1 MOL      0.400363
     22 O5         -4.2180    5.7760   -2.8610 o         1 MOL     -0.570643
     23 C9         -1.6280    6.0620   -1.2990 c3        1 MOL     -0.169708
     24 H8         -2.5200    3.6580    0.0320 hn        1 MOL      0.392972
     25 H9         -3.4520    6.4510   -0.3650 h1        1 MOL      0.017860
     26 H10        -0.9890    5.2850   -1.7270 hc        1 MOL      0.045003
     27 H11        -1.7110    6.8390   -2.0510 hc        1 MOL      0.045003
     28 H12        -1.1050    6.5340   -0.4710 hc        1 MOL      0.045003
     29 N3         -4.2480    3.7580   -1.9130 n         1 MOL     -0.375140
     30 C10        -4.7880    3.0850   -3.0910 c3        1 MOL      0.394662
     31 C11        -6.0420    2.2780   -2.6700 c         1 MOL      0.183565
     32 O6         -6.9030    1.9570   -3.4590 o         1 MOL     -0.525975
     33 C12        -3.8220    2.1730   -3.8090 c3        1 MOL     -0.320561
     34 C13        -3.0870    1.1790   -2.9190 c         1 MOL      0.804875
     35 O7         -3.7160    0.5320   -2.0920 o         1 MOL     -0.779122
     36 O8         -1.8380    1.0970   -2.7720 o         1 MOL     -0.779122
     37 H13        -3.9610    3.2190   -1.1100 hn        1 MOL      0.221139
     38 H14        -5.0530    3.7860   -3.8790 h1        1 MOL      0.034192
     39 H15        -3.0690    2.7880   -4.3060 hc        1 MOL      0.067788
     40 H16        -4.3000    1.5060   -4.5120 hc        1 MOL      0.067788
     41 N4         -6.1730    1.8880   -1.4080 n         1 MOL     -0.052301
     42 C14        -7.2970    1.0260   -0.9780 c3        1 MOL     -0.159159
     43 C15        -7.2770   -0.4570   -1.2920 c         1 MOL      0.412442
     44 O9         -8.3360   -1.1150   -1.1600 o         1 MOL     -0.596899
     45 H17        -5.4570    2.0670   -0.7170 hn        1 MOL      0.009999
     46 H18        -8.2340    1.3900   -1.3890 h1        1 MOL      0.108284
     47 H19        -7.5220    1.2820    0.0570 h1        1 MOL      0.108284
     48 N5         -6.1520   -1.0230   -1.6660 n         1 MOL     -0.143715
     49 C16        -5.9720   -2.3890   -2.2430 c3        1 MOL     -0.099328
     50 C17        -6.0930   -3.4490   -1.1010 c         1 MOL      0.448895
     51 O10        -6.2750   -4.5840   -1.4070 o         1 MOL     -0.541143
     52 C18        -4.6960   -2.5120   -3.0860 c3        1 MOL     -0.131620
     53 C19        -3.3670   -2.5670   -2.2970 c         1 MOL      0.533993
     54 N6         -2.4160   -2.8160   -3.0070 n         1 MOL     -0.578718
     55 O11        -3.3150   -2.2670   -1.1120 o         1 MOL     -0.426857
     56 H20        -5.3040   -0.4830   -1.7800 hn        1 MOL      0.285430
     57 H21        -6.8340   -2.5550   -2.8960 h1        1 MOL      0.102666
     58 H22        -4.6320   -1.6970   -3.8070 hc        1 MOL      0.048390
     59 H23        -4.7760   -3.3820   -3.7410 hc        1 MOL      0.048390
     60 H24        -2.6330   -2.9660   -3.9820 hn        1 MOL      0.314090
     61 H25        -1.4800   -2.8000   -2.6290 hn        1 MOL      0.314090
     62 N7         -6.0030   -3.0100    0.1610 n         1 MOL     -0.102445
     63 C20        -6.2340   -3.7670    1.4180 c3        1 MOL     -0.256812
     64 C21        -5.0540   -4.1990    2.1670 c         1 MOL      0.640424
     65 O12        -5.2140   -4.8720    3.1700 o         1 MOL     -0.617720
     66 H26        -5.8740   -2.0140    0.2840 hn        1 MOL      0.136165
     67 H27        -6.8490   -4.6360    1.1830 h1        1 MOL      0.106965
     68 H28        -6.7960   -3.0780    2.0470 h1        1 MOL      0.106965
     69 N8         -3.8700   -3.9210    1.6630 n         1 MOL     -0.233434
     70 C22        -2.5500   -4.4070    1.9220 c3        1 MOL     -0.180755
     71 C23        -1.4510   -3.3040    1.7760 c         1 MOL      0.590492
     72 O13        -1.5800   -2.2970    1.0670 o         1 MOL     -0.571486
     73 C24        -2.1830   -5.4700    0.8710 c3        1 MOL      0.624080
     74 C25        -2.7260   -6.8540    1.2320 c3        1 MOL     -0.469903
     75 O14        -2.5830   -5.1410   -0.4810 oh        1 MOL     -0.661480
     76 H29        -3.8580   -3.1230    1.0360 hn        1 MOL      0.142883
     77 H30        -2.4440   -4.9350    2.8660 h1        1 MOL      0.068966
     78 H31        -1.0880   -5.5170    0.8950 h1        1 MOL     -0.070837
     79 H32        -2.3320   -4.2550   -0.7600 ho        1 MOL      0.342517
     80 H33        -2.0920   -7.4190    1.9080 hc        1 MOL      0.114529
     81 H34        -3.7550   -6.6610    1.5300 hc        1 MOL      0.114529
     82 H35        -2.6130   -7.3860    0.2840 hc        1 MOL      0.114529
     83 N9         -0.3130   -3.5210    2.3930 n         1 MOL     -0.604042
     84 C26         0.8290   -2.6490    2.2490 c3        1 MOL      0.279226
     85 C27         1.6400   -2.9700    0.9550 c         1 MOL      0.527553
     86 O15         1.8930   -4.1190    0.6480 o         1 MOL     -0.573527
     87 C28         1.7340   -2.6150    3.4900 c3        1 MOL     -0.069561
     88 C29         1.1670   -1.4160    4.2660 c3        1 MOL      0.263748
     89 C30         3.1890   -2.4360    3.2670 c3        1 MOL     -0.157265
     90 C31         1.8700   -1.3090    5.6360 c3        1 MOL     -0.222805
     91 H36        -0.1790   -4.5020    2.5890 hn        1 MOL      0.286078
     92 H37         0.3870   -1.6670    2.0670 h1        1 MOL     -0.057397
     93 H38         1.5410   -3.5530    4.0170 hc        1 MOL      0.029114
     94 H39         0.1110   -1.5550    4.4980 hc        1 MOL     -0.055143
     95 H40         1.2750   -0.4820    3.7240 hc        1 MOL     -0.055143
     96 H41         3.4280   -1.6300    2.5730 hc        1 MOL      0.032969
     97 H42         3.7790   -2.4440    4.1820 hc        1 MOL      0.032969
     98 H43         3.5920   -3.3280    2.7910 hc        1 MOL      0.032969
     99 H44         1.5020   -2.1600    6.2150 hc        1 MOL      0.036498
    100 H45         2.9540   -1.3040    5.5750 hc        1 MOL      0.036498
    101 H46         1.5440   -0.3870    6.1000 hc        1 MOL      0.036498
    102 N10         2.0530   -1.8930    0.1740 n         1 MOL     -0.234677
    103 C32         2.8020   -2.0140   -1.0360 c3        1 MOL      0.003976
    104 C33         4.2920   -1.5570   -0.7080 c         1 MOL      0.398170
    105 O16         4.4900   -0.8060    0.2660 o         1 MOL     -0.268180
    106 C34         2.0970   -1.2300   -2.1650 c3        1 MOL     -0.247337
    107 C35         0.6810   -1.8730   -2.4080 c         1 MOL      0.719886
    108 O17        -0.2740   -1.6040   -1.6730 o         1 MOL     -0.686963
    109 O18         0.5660   -2.5640   -3.4620 o         1 MOL     -0.686963
    110 H47         1.7680   -0.9720    0.4810 hn        1 MOL      0.176377
    111 H48         2.8870   -3.0400   -1.3960 h1        1 MOL      0.074426
    112 H49         2.6500   -1.3030   -3.1060 hc        1 MOL      0.081076
    113 H50         1.9920   -0.1660   -1.9310 hc        1 MOL      0.081076
    114 N11         5.3060   -1.8980   -1.4600 n         1 MOL     -0.596267
    115 C36         6.6940   -1.5390   -1.2360 c3        1 MOL      0.347462
    116 C37         6.8500    0.0540   -1.0400 c         1 MOL      0.286680
    117 O19         7.4360    0.4730   -0.0190 o         1 MOL     -0.480003
    118 C38         7.6190   -2.0430   -2.3560 c3        1 MOL     -0.247899
    119 C39         9.0580   -1.7300   -2.1750 ca        1 MOL      0.230114
    120 C40         9.5990   -2.0120   -0.9470 ca        1 MOL     -0.271287
    121 C41         9.8510   -1.1190   -3.2060 ca        1 MOL     -0.271287
    122 C42        10.9220   -1.6200   -0.6680 ca        1 MOL     -0.026671
    123 C43        11.1810   -0.7400   -2.9080 ca        1 MOL     -0.026671
    124 C44        11.7250   -1.1170   -1.6480 ca        1 MOL     -0.184009
    125 H51         5.1380   -2.2380   -2.4030 hn        1 MOL      0.324719
    126 H52         7.0520   -2.0310   -0.3290 h1        1 MOL      0.060357
    127 H53         7.1370   -1.7010   -3.2710 hc        1 MOL      0.063505
    128 H54         7.5020   -3.1130   -2.4870 hc        1 MOL      0.063505
    129 H55         9.0470   -2.5540   -0.1870 ha        1 MOL      0.138131
    130 H56         9.4290   -0.8550   -4.1700 ha        1 MOL      0.138131
    131 H57        11.3450   -1.8590    0.2970 ha        1 MOL      0.099671
    132 H58        11.5770   -0.0850   -3.6650 ha        1 MOL      0.099671
    133 H59        12.7520   -0.9160   -1.3910 ha        1 MOL      0.106390
    134 N12         6.2530    0.9030   -1.9110 n         1 MOL     -0.137545
    135 C45         6.0990    2.3350   -1.6410 c3        1 MOL      0.134719
    136 C46         5.4380    2.8660   -0.3220 c         1 MOL      0.092639
    137 O20         5.6500    4.0210    0.0650 o         1 MOL     -0.478616
    138 C47         5.1530    2.9080   -2.7540 c3        1 MOL     -0.016559
    139 C48         5.0990    1.8250   -3.8650 c3        1 MOL      0.001870
    140 C49         5.4860    0.5430   -3.0970 c3        1 MOL     -0.089542
    141 H60         7.0960    2.7390   -1.7710 h1        1 MOL      0.059557
    142 H61         4.1380    3.0290   -2.3960 hc        1 MOL      0.028601
    143 H62         5.5900    3.7810   -3.2300 hc        1 MOL      0.028601
    144 H63         4.1230    1.7890   -4.3490 hc        1 MOL      0.021540
    145 H64         5.8970    2.0360   -4.5790 hc        1 MOL      0.021540
    146 H65         4.5280    0.1780   -2.7090 h1        1 MOL      0.047274
    147 H66         5.9610   -0.1690   -3.7780 h1        1 MOL      0.047274
    148 N13         4.6850    1.9870    0.3500 n         1 MOL      0.203517
    149 C50         4.0800    2.2290    1.6790 c3        1 MOL     -0.152661
    150 C51         4.8920    1.6180    2.8680 c         1 MOL      0.484277
    151 O21         4.9060    2.1310    3.9800 o         1 MOL     -0.544959
    152 C52         2.6500    1.7180    1.6580 c3        1 MOL     -0.005013
    153 C53         1.7990    2.3770    0.5610 c3        1 MOL     -0.093383
    154 C54         0.4420    1.6820    0.4520 c         1 MOL      0.571209
    155 O22         0.2690    0.4760    0.7860 o         1 MOL     -0.649031
    156 O23        -0.4780    2.3250   -0.1240 o         1 MOL     -0.649031
    157 H67         4.4900    1.0640   -0.0090 hn        1 MOL      0.020197
    158 H68         4.0230    3.3020    1.8210 h1        1 MOL      0.098810
    159 H69         2.1910    2.0360    2.6000 hc        1 MOL      0.027363
    160 H70         2.7310    0.6330    1.5980 hc        1 MOL      0.027363
    161 H71         2.3140    2.3270   -0.4030 hc        1 MOL      0.064483
    162 H72         1.6340    3.4400    0.7640 hc        1 MOL      0.064483
    163 N14         5.6390    0.5040    2.5810 n         1 MOL     -0.102153
    164 C55         6.7030   -0.0430    3.3890 c3        1 MOL     -0.308527
    165 H73         6.3380   -0.2110    4.4020 h1        1 MOL      0.108165
    166 H74         7.0350   -0.9880    2.9600 h1        1 MOL      0.108165
    167 H75         7.5370    0.6580    3.4150 h1        1 MOL      0.108165
    168 H76         5.4090    0.0250    1.7140 hn        1 MOL      0.061747
    169 Ca1        -1.9470   -0.0670   -0.3000 Ca        1 MOL      1.677599
    170 O24        -4.2710   -0.5950    1.2810 oh        1 MOL     -0.683510
    171 H77        -4.7830    0.1990    1.1590 ho        1 MOL      0.341247
    172 H78        -4.4200   -0.8330    2.1960 ho        1 MOL      0.341247
    173 O25        -1.8230    0.3970    2.5610 oh        1 MOL     -0.683510
    174 H79        -0.9470    0.5590    2.2380 ho        1 MOL      0.341247
    175 H80        -1.8150    0.7300    3.4550 ho        1 MOL      0.341247
@<TRIPOS>BOND
     1    1    2 1   
     2    1    4 1   
     3    1    5 1   
     4    1    6 1   
     5    2    3 2   
     6    2    7 1   
     7    7    8 1   
     8    7   15 1   
     9    8    9 1   
    10    8   11 1   
    11    8   16 1   
    12    9   10 2   
    13    9   19 1   
    14   11   12 1   
    15   11   17 1   
    16   11   18 1   
    17   12   13 1   
    18   12   14 1   
    19   19   20 1   
    20   19   24 1   
    21   20   21 1   
    22   20   23 1   
    23   20   25 1   
    24   21   22 2   
    25   21   29 1   
    26   23   26 1   
    27   23   27 1   
    28   23   28 1   
    29   29   30 1   
    30   29   37 1   
    31   30   31 1   
    32   30   33 1   
    33   30   38 1   
    34   31   32 2   
    35   31   41 1   
    36   33   34 1   
    37   33   39 1   
    38   33   40 1   
    39   34   35 1   
    40   34   36 1   
    41   41   42 1   
    42   41   45 1   
    43   42   43 1   
    44   42   46 1   
    45   42   47 1   
    46   43   44 2   
    47   43   48 1   
    48   48   49 1   
    49   48   56 1   
    50   49   50 1   
    51   49   52 1   
    52   49   57 1   
    53   50   51 2   
    54   50   62 1   
    55   52   53 1   
    56   52   58 1   
    57   52   59 1   
    58   53   54 1   
    59   53   55 2   
    60   54   60 1   
    61   54   61 1   
    62   62   63 1   
    63   62   66 1   
    64   63   64 1   
    65   63   67 1   
    66   63   68 1   
    67   64   65 2   
    68   64   69 1   
    69   69   70 1   
    70   69   76 1   
    71   70   71 1   
    72   70   73 1   
    73   70   77 1   
    74   71   72 2   
    75   71   83 1   
    76   73   74 1   
    77   73   75 1   
    78   73   78 1   
    79   74   80 1   
    80   74   81 1   
    81   74   82 1   
    82   75   79 1   
    83   83   84 1   
    84   83   91 1   
    85   84   85 1   
    86   84   87 1   
    87   84   92 1   
    88   85   86 2   
    89   85  102 1   
    90   87   88 1   
    91   87   89 1   
    92   87   93 1   
    93   88   90 1   
    94   88   94 1   
    95   88   95 1   
    96   89   96 1   
    97   89   97 1   
    98   89   98 1   
    99   90   99 1   
   100   90  100 1   
   101   90  101 1   
   102  102  103 1   
   103  102  110 1   
   104  103  104 1   
   105  103  106 1   
   106  103  111 1   
   107  104  105 2   
   108  104  114 1   
   109  106  107 1   
   110  106  112 1   
   111  106  113 1   
   112  107  108 1   
   113  107  109 1   
   114  114  115 1   
   115  114  125 1   
   116  115  116 1   
   117  115  118 1   
   118  115  126 1   
   119  116  117 2   
   120  116  134 1   
   121  118  119 1   
   122  118  127 1   
   123  118  128 1   
   124  119  120 ar  
   125  119  121 ar  
   126  120  122 ar  
   127  120  129 1   
   128  121  123 ar  
   129  121  130 1   
   130  122  124 ar  
   131  122  131 1   
   132  123  124 ar  
   133  123  132 1   
   134  124  133 1   
   135  134  135 1   
   136  134  140 1   
   137  135  136 1   
   138  135  138 1   
   139  135  141 1   
   140  136  137 2   
   141  136  148 1   
   142  138  139 1   
   143  138  142 1   
   144  138  143 1   
   145  139  140 1   
   146  139  144 1   
   147  139  145 1   
   148  140  146 1   
   149  140  147 1   
   150  148  149 1   
   151  148  157 1   
   152  149  150 1   
   153  149  152 1   
   154  149  158 1   
   155  150  151 2   
   156  150  163 1   
   157  152  153 1   
   158  152  159 1   
   159  152  160 1   
   160  153  154 1   
   161  153  161 1   
   162  153  162 1   
   163  154  155 1   
   164  154  156 1   
   165  163  164 1   
   166  163  168 1   
   167  164  165 1   
   168  164  166 1   
   169  164  167 1   
   170  170  171 1   
   171  170  172 1   
   172  173  174 1   
   173  173  175 1   
@<TRIPOS>SUBSTRUCTURE
     1 MOL         1 TEMP              0 ****  ****    0 ROOT
