@<TRIPOS>MOLECULE
MOL
  189   185     1     0     0
SMALL
resp


@<TRIPOS>ATOM
      1 C1          0.2450   -2.7140    6.1710 c3        1 MOL     -0.447676
      2 C2          0.7000   -2.4940    4.7760 c         1 MOL      0.781404
      3 O1          0.7390   -1.4320    4.2670 o         1 MOL     -0.624219
      4 H1          0.6410   -3.6620    6.5360 hc        1 MOL      0.110386
      5 H2          0.6050   -1.9030    6.8040 hc        1 MOL      0.110386
      6 H3         -0.8440   -2.7410    6.1990 hc        1 MOL      0.110386
      7 N1          0.9530   -3.6050    4.0570 n         1 MOL     -0.690176
      8 C3          1.6980   -3.5160    2.7610 c3        1 MOL      0.146930
      9 C4          1.6120   -4.8110    1.9600 c         1 MOL      0.436468
     10 O2          1.8900   -5.9050    2.4630 o         1 MOL     -0.569977
     11 C5          3.2000   -3.2020    3.0460 c3        1 MOL     -0.170562
     12 C6          3.9890   -2.8880    1.7440 c         1 MOL      0.735019
     13 O3          3.2930   -2.5430    0.7580 o         1 MOL     -0.683360
     14 O4          5.1840   -3.0140    1.6800 o         1 MOL     -0.683360
     15 H4          0.8420   -4.4750    4.5570 hn        1 MOL      0.338780
     16 H5          1.2780   -2.7140    2.1470 h1        1 MOL      0.168005
     17 H6          3.6690   -4.0060    3.6010 hc        1 MOL      0.023465
     18 H7          3.2910   -2.3020    3.6490 hc        1 MOL      0.023465
     19 N2          1.2800   -4.6510    0.6600 n         1 MOL     -0.156727
     20 C7          1.5560   -5.6870   -0.3520 c3        1 MOL      0.026812
     21 C8          2.5600   -5.3650   -1.4900 c         1 MOL      0.430915
     22 O5          2.8670   -6.3410   -2.2450 o         1 MOL     -0.594321
     23 C9          0.2030   -6.3280   -0.7160 c3        1 MOL      0.129702
     24 C10        -0.7630   -5.3910   -1.5420 c3        1 MOL      0.060725
     25 C11        -0.5640   -7.0090    0.4640 c3        1 MOL     -0.292382
     26 C12        -0.3530   -5.1520   -2.9880 c3        1 MOL     -0.077145
     27 H8          0.8630   -3.7670    0.4030 hn        1 MOL      0.146194
     28 H9          2.1020   -6.4780    0.1730 h1        1 MOL      0.078505
     29 H10         0.4380   -7.1340   -1.4050 hc        1 MOL     -0.025186
     30 H11        -0.8460   -4.4170   -1.0620 hc        1 MOL     -0.004573
     31 H12        -1.7730   -5.7950   -1.5520 hc        1 MOL     -0.004573
     32 H13        -1.3800   -7.5660    0.0130 hc        1 MOL      0.060180
     33 H14         0.1560   -7.5670    1.0640 hc        1 MOL      0.060180
     34 H15        -1.0310   -6.2170    1.0460 hc        1 MOL      0.060180
     35 H16        -1.1620   -4.6370   -3.5090 hc        1 MOL      0.008144
     36 H17         0.5490   -4.5420   -3.0180 hc        1 MOL      0.008144
     37 H18        -0.3150   -6.1170   -3.5170 hc        1 MOL      0.008144
     38 N3          3.2070   -4.1840   -1.5790 n         1 MOL     -0.303397
     39 C13         4.0760   -3.8730   -2.8060 c3        1 MOL      0.004186
     40 C14         5.4300   -3.1900   -2.5210 c         1 MOL      0.318552
     41 O6          6.2100   -2.9450   -3.4580 o         1 MOL     -0.545833
     42 C15         3.1830   -3.0680   -3.7990 c3        1 MOL     -0.100623
     43 C16         2.6700   -1.7060   -3.2350 c         1 MOL      0.757756
     44 O7          3.1810   -1.2080   -2.2020 o         1 MOL     -0.729993
     45 O8          1.6590   -1.1620   -3.7640 o         1 MOL     -0.729993
     46 H19         3.0650   -3.4920   -0.8540 hn        1 MOL      0.181336
     47 H20         4.3290   -4.7740   -3.3680 h1        1 MOL      0.126452
     48 H21         2.3390   -3.6940   -4.1050 hc        1 MOL      0.024743
     49 H22         3.7480   -2.8680   -4.7070 hc        1 MOL      0.024743
     50 N4          5.8160   -2.8820   -1.2880 n         1 MOL     -0.108549
     51 C17         7.0890   -2.3250   -0.8860 c3        1 MOL     -0.171077
     52 C18         7.4770   -0.9790   -1.4550 c         1 MOL      0.558115
     53 O9          8.5530   -0.4700   -1.1710 o         1 MOL     -0.615132
     54 H23         5.2560   -3.2030   -0.5030 hn        1 MOL      0.183457
     55 H24         7.9170   -2.9990   -1.0490 h1        1 MOL      0.082036
     56 H25         6.9740   -2.1160    0.1900 h1        1 MOL      0.082036
     57 N5          6.5510   -0.1880   -1.9810 n         1 MOL     -0.356111
     58 C19         6.8720    1.1430   -2.5700 c3        1 MOL      0.086202
     59 C20         7.2580    2.1430   -1.4510 c         1 MOL      0.432002
     60 O10         7.9860    3.1480   -1.6780 o         1 MOL     -0.603060
     61 C21         5.5900    1.5560   -3.3070 c3        1 MOL     -0.225042
     62 C22         4.2950    1.9330   -2.5160 c         1 MOL      0.775283
     63 O11         4.1860    1.5550   -1.3170 o         1 MOL     -0.684151
     64 O12         3.2900    2.3610   -3.1000 o         1 MOL     -0.684151
     65 H26         5.5850   -0.3950   -1.8060 hn        1 MOL      0.307249
     66 H27         7.6750    1.1170   -3.3050 h1        1 MOL      0.081999
     67 H28         5.3470    0.7980   -4.0490 hc        1 MOL      0.046679
     68 H29         5.8490    2.4650   -3.8570 hc        1 MOL      0.046679
     69 N6          6.7050    1.9900   -0.2510 n         1 MOL     -0.099358
     70 C23         7.0100    2.8810    0.8880 c3        1 MOL     -0.001844
     71 C24         5.8000    3.6990    1.4530 c         1 MOL      0.421131
     72 O13         6.0830    4.4960    2.3610 o         1 MOL     -0.575938
     73 H30         6.0670    1.2070   -0.2590 hn        1 MOL      0.088077
     74 H31         7.7880    3.5810    0.5810 h1        1 MOL      0.051834
     75 H32         7.5060    2.2900    1.6560 h1        1 MOL      0.051834
     76 N7          4.5490    3.5220    0.9170 n         1 MOL     -0.230108
     77 C25         3.3580    4.2840    1.4160 c3        1 MOL      0.061652
     78 C26         2.1600    3.3890    1.5020 c         1 MOL      0.527980
     79 O14         2.1320    2.2920    0.8890 o         1 MOL     -0.518223
     80 C27         2.9870    5.3270    0.3420 c3        1 MOL     -0.208504
     81 C28         4.0460    6.4640    0.2360 c3        1 MOL     -0.226953
     82 C29         3.7590    7.7620   -0.4930 c         1 MOL      0.718502
     83 N8          4.5750    8.7810   -0.3100 n         1 MOL     -0.829770
     84 O15         2.7990    7.8570   -1.2750 o         1 MOL     -0.566139
     85 H33         4.4180    2.8710    0.1490 hn        1 MOL      0.164251
     86 H34         3.5560    4.8290    2.3460 h1        1 MOL      0.055072
     87 H35         2.0420    5.7950    0.6350 hc        1 MOL      0.109043
     88 H36         2.8740    4.8440   -0.6340 hc        1 MOL      0.109043
     89 H37         5.0220    6.0980   -0.0620 hc        1 MOL      0.078220
     90 H38         4.1730    6.7200    1.2930 hc        1 MOL      0.078220
     91 H39         5.3480    8.6320    0.3280 hn        1 MOL      0.358574
     92 H40         4.4500    9.6940   -0.7110 hn        1 MOL      0.358574
     93 N9          1.1030    3.6750    2.2500 n         1 MOL     -0.698603
     94 C30        -0.1040    2.8400    2.4180 c3        1 MOL      0.059722
     95 C31        -1.1490    3.2510    1.3190 c         1 MOL      0.739137
     96 O16        -1.5170    4.4010    1.1470 o         1 MOL     -0.609875
     97 C32        -0.6800    2.9870    3.8470 c3        1 MOL      0.250548
     98 C33        -1.2820    4.3330    4.2080 c3        1 MOL     -0.183886
     99 C34        -1.4930    1.7850    4.2440 c3        1 MOL     -0.183886
    100 H41         1.0740    4.6320    2.5690 hn        1 MOL      0.348628
    101 H42         0.2380    1.8160    2.2530 h1        1 MOL      0.226930
    102 H43         0.2090    2.8300    4.4510 hc        1 MOL     -0.041501
    103 H44        -1.5160    4.3230    5.2700 hc        1 MOL      0.029287
    104 H45        -0.5760    5.1380    4.0040 hc        1 MOL      0.029287
    105 H46        -2.1660    4.5210    3.6070 hc        1 MOL      0.029287
    106 H47        -2.3770    1.7090    3.6120 hc        1 MOL      0.029287
    107 H48        -0.8020    0.9530    4.1090 hc        1 MOL      0.029287
    108 H49        -1.7900    1.9420    5.2770 hc        1 MOL      0.029287
    109 N10        -1.6330    2.2360    0.5760 n         1 MOL     -0.196515
    110 C35        -2.7310    2.2580   -0.3820 c3        1 MOL     -0.028459
    111 C36        -4.0650    2.1880    0.3380 c         1 MOL      0.269219
    112 O17        -4.0940    1.5800    1.4340 o         1 MOL     -0.359250
    113 C37        -2.4280    1.1560   -1.3700 c3        1 MOL     -0.038514
    114 C38        -3.3910    0.7970   -2.4690 c         1 MOL      0.433520
    115 N11        -3.2090   -0.2050   -3.2910 n         1 MOL     -0.689781
    116 O18        -4.4380    1.3720   -2.5960 o         1 MOL     -0.434725
    117 H50        -1.4180    1.3530    1.0160 hn        1 MOL     -0.379416
    118 H51        -2.6460    3.1890   -0.9290 h1        1 MOL      0.086682
    119 H52        -2.3340    0.2360   -0.7790 hc        1 MOL      0.114498
    120 H53        -1.4430    1.3000   -1.8140 hc        1 MOL      0.114498
    121 H54        -2.4480   -0.8560   -3.1380 hn        1 MOL      0.355704
    122 H55        -3.7930   -0.3410   -4.0970 hn        1 MOL      0.355704
    123 N12        -5.1160    2.7380   -0.2060 n         1 MOL     -0.188542
    124 C39        -6.4500    2.5550    0.3800 c3        1 MOL      0.028335
    125 C40        -6.9400    1.0480    0.5680 c         1 MOL      0.414377
    126 O19        -7.7020    0.7670    1.5270 o         1 MOL     -0.534755
    127 C41        -7.5180    3.3300   -0.3450 c3        1 MOL     -0.097587
    128 C42        -7.5500    3.1500   -1.8690 ca        1 MOL      0.047125
    129 C43        -8.3930    2.1750   -2.3930 ca        1 MOL     -0.209321
    130 C44        -6.7450    3.9200   -2.7110 ca        1 MOL     -0.209321
    131 C45        -8.3990    1.8820   -3.7430 ca        1 MOL     -0.239045
    132 C46        -6.7370    3.7060   -4.0760 ca        1 MOL     -0.239045
    133 C47        -7.5750    2.6600   -4.5970 ca        1 MOL      0.332443
    134 O20        -7.5990    2.5140   -5.9730 oh        1 MOL     -0.543040
    135 H56        -5.0070    3.2460   -1.0680 hn        1 MOL      0.187243
    136 H57        -6.4120    3.0000    1.3690 h1        1 MOL      0.075687
    137 H58        -7.2870    4.3990   -0.2530 hc        1 MOL      0.041549
    138 H59        -8.4670    3.1480    0.1590 hc        1 MOL      0.041549
    139 H60        -9.0240    1.6760   -1.6670 ha        1 MOL      0.163990
    140 H61        -6.1120    4.7140   -2.3480 ha        1 MOL      0.163990
    141 H62        -9.1610    1.2410   -4.1560 ha        1 MOL      0.154942
    142 H63        -6.0880    4.3020   -4.6950 ha        1 MOL      0.154942
    143 H64        -8.3350    2.0130   -6.3170 ho        1 MOL      0.389734
    144 N13        -6.3600    0.0990   -0.1600 n         1 MOL     -0.257570
    145 C48        -6.5010   -1.3780   -0.0650 c3        1 MOL     -0.006303
    146 C49        -5.7700   -1.7970    1.2650 c         1 MOL      0.327655
    147 O21        -6.1500   -2.7540    1.9220 o         1 MOL     -0.507464
    148 C50        -5.7240   -2.0150   -1.2190 c3        1 MOL      0.160546
    149 C51        -6.5880   -2.2400   -2.4460 c3        1 MOL     -0.223257
    150 C52        -7.7410   -3.2110   -2.1580 c         1 MOL      0.692316
    151 O22        -8.9180   -2.7660   -2.2690 o         1 MOL     -0.724341
    152 O23        -7.4680   -4.3710   -1.7180 o         1 MOL     -0.724341
    153 H65        -5.9160    0.4120   -1.0220 hn        1 MOL      0.285991
    154 H66        -7.5110   -1.7820   -0.0750 h1        1 MOL      0.119279
    155 H67        -5.2800   -2.9560   -0.8940 hc        1 MOL     -0.003612
    156 H68        -4.8790   -1.3590   -1.4480 hc        1 MOL     -0.003612
    157 H69        -6.0090   -2.7450   -3.2080 hc        1 MOL     -0.008782
    158 H70        -6.9920   -1.2770   -2.7620 hc        1 MOL     -0.008782
    159 N14        -4.6350   -1.1560    1.5450 n         1 MOL     -0.071085
    160 C53        -3.7920   -1.5080    2.7220 c3        1 MOL     -0.219223
    161 C54        -4.2920   -0.8410    4.0030 c         1 MOL      0.446333
    162 O24        -3.8510   -1.1260    5.1170 o         1 MOL     -0.558950
    163 C55        -2.3160   -1.2060    2.3340 c3        1 MOL     -0.025439
    164 C56        -1.6950   -2.0290    1.2230 c3        1 MOL      0.153740
    165 C57        -0.4070   -1.4210    0.6530 c         1 MOL      0.435105
    166 O25        -0.0330   -0.2440    0.8990 o         1 MOL     -0.560644
    167 O26         0.3560   -2.0740   -0.0420 o         1 MOL     -0.560644
    168 H71        -4.4970   -0.2990    1.0340 hn        1 MOL      0.102090
    169 H72        -3.8980   -2.5580    2.9750 h1        1 MOL      0.138772
    170 H73        -1.6910   -1.3590    3.2210 hc        1 MOL      0.113696
    171 H74        -2.1870   -0.1410    2.1920 hc        1 MOL      0.113696
    172 H75        -2.4220   -2.1250    0.4120 hc        1 MOL     -0.066150
    173 H76        -1.4800   -3.0440    1.5790 hc        1 MOL     -0.066150
    174 N15        -5.1610    0.1390    3.8050 n         1 MOL     -0.121426
    175 C58        -5.5580    1.1270    4.8780 c3        1 MOL     -0.134144
    176 H77        -6.0900    1.9630    4.4230 h1        1 MOL      0.068640
    177 H78        -6.2080    0.6360    5.6030 h1        1 MOL      0.068640
    178 H79        -4.6640    1.4970    5.3820 h1        1 MOL      0.068640
    179 H80        -5.3330    0.3230    2.8300 hn        1 MOL      0.122712
    180 Ca1         2.4060   -0.1220   -0.0870 Ca        1 MOL      1.676904
    181 O27         4.8550   -0.2210    0.8880 oh        1 MOL     -0.921065
    182 H81         5.1110   -1.1280    1.0490 ho        1 MOL      0.437193
    183 H82         5.2910    0.2690    1.5830 ho        1 MOL      0.437193
    184 O28         2.5160   -0.0430    2.6360 oh        1 MOL     -0.921065
    185 H83         1.8410   -0.5890    3.0270 ho        1 MOL      0.437193
    186 H84         2.8490    0.4860    3.3630 ho        1 MOL      0.437193
    187 O29         1.3220    0.9990   -2.2830 oh        1 MOL     -0.921065
    188 H85         1.2130    0.5380   -3.1180 ho        1 MOL      0.437193
    189 H86         2.0820    1.5650   -2.4130 ho        1 MOL      0.437193
@<TRIPOS>BOND
     1    1    2 1   
     2    1    4 1   
     3    1    5 1   
     4    1    6 1   
     5    2    3 2   
     6    2    7 1   
     7    7    8 1   
     8    7   15 1   
     9    8    9 1   
    10    8   11 1   
    11    8   16 1   
    12    9   10 2   
    13    9   19 1   
    14   11   12 1   
    15   11   17 1   
    16   11   18 1   
    17   12   13 1   
    18   12   14 1   
    19   19   20 1   
    20   19   27 1   
    21   20   21 1   
    22   20   23 1   
    23   20   28 1   
    24   21   22 2   
    25   21   38 1   
    26   23   24 1   
    27   23   25 1   
    28   23   29 1   
    29   24   26 1   
    30   24   30 1   
    31   24   31 1   
    32   25   32 1   
    33   25   33 1   
    34   25   34 1   
    35   26   35 1   
    36   26   36 1   
    37   26   37 1   
    38   38   39 1   
    39   38   46 1   
    40   39   40 1   
    41   39   42 1   
    42   39   47 1   
    43   40   41 2   
    44   40   50 1   
    45   42   43 1   
    46   42   48 1   
    47   42   49 1   
    48   43   44 1   
    49   43   45 1   
    50   50   51 1   
    51   50   54 1   
    52   51   52 1   
    53   51   55 1   
    54   51   56 1   
    55   52   53 2   
    56   52   57 1   
    57   57   58 1   
    58   57   65 1   
    59   58   59 1   
    60   58   61 1   
    61   58   66 1   
    62   59   60 2   
    63   59   69 1   
    64   61   62 1   
    65   61   67 1   
    66   61   68 1   
    67   62   63 1   
    68   62   64 1   
    69   69   70 1   
    70   69   73 1   
    71   70   71 1   
    72   70   74 1   
    73   70   75 1   
    74   71   72 2   
    75   71   76 1   
    76   76   77 1   
    77   76   85 1   
    78   77   78 1   
    79   77   80 1   
    80   77   86 1   
    81   78   79 2   
    82   78   93 1   
    83   80   81 1   
    84   80   87 1   
    85   80   88 1   
    86   81   82 1   
    87   81   89 1   
    88   81   90 1   
    89   82   83 1   
    90   82   84 2   
    91   83   91 1   
    92   83   92 1   
    93   93   94 1   
    94   93  100 1   
    95   94   95 1   
    96   94   97 1   
    97   94  101 1   
    98   95   96 2   
    99   95  109 1   
   100   97   98 1   
   101   97   99 1   
   102   97  102 1   
   103   98  103 1   
   104   98  104 1   
   105   98  105 1   
   106   99  106 1   
   107   99  107 1   
   108   99  108 1   
   109  109  110 1   
   110  109  117 1   
   111  110  111 1   
   112  110  113 1   
   113  110  118 1   
   114  111  112 2   
   115  111  123 1   
   116  113  114 1   
   117  113  119 1   
   118  113  120 1   
   119  114  115 1   
   120  114  116 2   
   121  115  121 1   
   122  115  122 1   
   123  123  124 1   
   124  123  135 1   
   125  124  125 1   
   126  124  127 1   
   127  124  136 1   
   128  125  126 2   
   129  125  144 1   
   130  127  128 1   
   131  127  137 1   
   132  127  138 1   
   133  128  129 ar  
   134  128  130 ar  
   135  129  131 ar  
   136  129  139 1   
   137  130  132 ar  
   138  130  140 1   
   139  131  133 ar  
   140  131  141 1   
   141  132  133 ar  
   142  132  142 1   
   143  133  134 1   
   144  134  143 1   
   145  144  145 1   
   146  144  153 1   
   147  145  146 1   
   148  145  148 1   
   149  145  154 1   
   150  146  147 2   
   151  146  159 1   
   152  148  149 1   
   153  148  155 1   
   154  148  156 1   
   155  149  150 1   
   156  149  157 1   
   157  149  158 1   
   158  150  151 1   
   159  150  152 1   
   160  159  160 1   
   161  159  168 1   
   162  160  161 1   
   163  160  163 1   
   164  160  169 1   
   165  161  162 2   
   166  161  174 1   
   167  163  164 1   
   168  163  170 1   
   169  163  171 1   
   170  164  165 1   
   171  164  172 1   
   172  164  173 1   
   173  165  166 1   
   174  165  167 1   
   175  174  175 1   
   176  174  179 1   
   177  175  176 1   
   178  175  177 1   
   179  175  178 1   
   180  181  182 1   
   181  181  183 1   
   182  184  185 1   
   183  184  186 1   
   184  187  188 1   
   185  187  189 1   
@<TRIPOS>SUBSTRUCTURE
     1 MOL         1 TEMP              0 ****  ****    0 ROOT
