@<TRIPOS>MOLECULE
MOL
  182   178     1     0     0
SMALL
resp


@<TRIPOS>ATOM
      1 C1          1.0020    4.4920    4.8050 c3        1 MOL     -0.379300
      2 C2          0.4090    4.0430    3.4670 c         1 MOL      0.702921
      3 O1          1.0180    4.2890    2.4540 o         1 MOL     -0.615247
      4 H1          2.0770    4.6360    4.6950 hc        1 MOL      0.099563
      5 H2          0.5400    5.4310    5.1120 hc        1 MOL      0.099563
      6 H3          0.8140    3.7290    5.5600 hc        1 MOL      0.099563
      7 N1         -0.6920    3.2960    3.4430 n         1 MOL     -0.627327
      8 C3         -1.4810    2.8140    2.2900 c3        1 MOL      0.129241
      9 C4         -2.1940    3.9790    1.5370 c         1 MOL      0.444861
     10 O2         -3.3280    4.3170    1.7680 o         1 MOL     -0.495350
     11 C5         -2.5800    1.7660    2.7000 c3        1 MOL     -0.219389
     12 C6         -3.1450    0.9900    1.5580 c         1 MOL      0.608061
     13 O3         -4.1220    0.2820    1.7260 o         1 MOL     -0.620656
     14 O4         -2.6520    1.1230    0.3970 o         1 MOL     -0.620656
     15 H4         -1.0810    3.1320    4.3570 hn        1 MOL      0.329265
     16 H5         -0.7330    2.2610    1.7020 h1        1 MOL      0.022649
     17 H6         -3.3370    2.1720    3.3640 hc        1 MOL      0.076023
     18 H7         -1.9870    1.0760    3.2980 hc        1 MOL      0.076023
     19 N2         -1.4800    4.5770    0.6070 n         1 MOL     -0.261317
     20 C7         -1.8770    5.8250   -0.0690 c3        1 MOL     -0.011324
     21 C8         -3.0480    5.6280   -0.9860 c         1 MOL      0.384843
     22 O5         -3.9040    6.4940   -1.0920 o         1 MOL     -0.515079
     23 C9         -0.7130    6.4390   -0.9210 c3        1 MOL     -0.179326
     24 C10         0.4580    6.8710    0.0320 c3        1 MOL      0.063932
     25 C11         0.0720    7.7860    1.2100 c3        1 MOL     -0.059141
     26 C12         1.2950    8.5560    1.7030 c3        1 MOL     -0.041161
     27 N3          0.8740    9.3880    2.8500 n4        1 MOL     -0.267490
     28 H8         -0.5280    4.2910    0.4550 hn        1 MOL      0.319702
     29 H9         -2.1980    6.5640    0.6610 h1        1 MOL      0.079863
     30 H10        -0.9770    7.3550   -1.4530 hc        1 MOL      0.078246
     31 H11        -0.2740    5.7040   -1.5850 hc        1 MOL      0.078246
     32 H12         1.2010    7.4040   -0.5740 hc        1 MOL      0.004309
     33 H13         0.9640    5.9660    0.3890 hc        1 MOL      0.004309
     34 H14        -0.4310    7.2590    2.0140 hc        1 MOL      0.042130
     35 H15        -0.7590    8.4690    0.9870 hc        1 MOL      0.042130
     36 H16         1.5490    9.1680    0.8370 hx        1 MOL      0.116588
     37 H17         2.2060    7.9910    1.9130 hx        1 MOL      0.116588
     38 H18         0.6110    8.8390    3.6570 hn        1 MOL      0.305577
     39 H19         1.5700   10.0470    3.1580 hn        1 MOL      0.305577
     40 H20         0.0190    9.8890    2.6680 hn        1 MOL      0.305577
     41 N4         -3.0710    4.4610   -1.6630 n         1 MOL     -0.160798
     42 C13        -4.0980    4.1640   -2.6780 c3        1 MOL      0.020191
     43 C14        -5.3380    3.4650   -2.0930 c         1 MOL      0.424699
     44 O6         -6.3260    3.3240   -2.7900 o         1 MOL     -0.529426
     45 C15        -3.4130    3.3620   -3.7760 c3        1 MOL     -0.235594
     46 C16        -2.7780    2.0650   -3.3160 c         1 MOL      0.862121
     47 O7         -1.5840    2.0630   -3.0640 o         1 MOL     -0.799756
     48 O8         -3.4200    1.0380   -2.9830 o         1 MOL     -0.799756
     49 H21        -2.3580    3.7490   -1.5500 hn        1 MOL      0.105444
     50 H22        -4.5220    5.0770   -3.1070 h1        1 MOL      0.097819
     51 H23        -2.6360    3.9370   -4.2670 hc        1 MOL      0.061997
     52 H24        -4.1180    3.0780   -4.5620 hc        1 MOL      0.061997
     53 N5         -5.2610    2.8990   -0.9090 n         1 MOL     -0.189106
     54 C17        -6.3530    2.2800   -0.1800 c3        1 MOL     -0.063120
     55 C18        -6.7420    0.9130   -0.4920 c         1 MOL      0.477433
     56 O9         -7.8980    0.6150   -0.1900 o         1 MOL     -0.564269
     57 H25        -4.4000    2.9680   -0.3780 hn        1 MOL      0.157942
     58 H26        -7.2280    2.9110   -0.0140 h1        1 MOL      0.088330
     59 H27        -5.9600    2.2920    0.8390 h1        1 MOL      0.088330
     60 N6         -5.8900    0.0210   -1.0520 n         1 MOL     -0.263588
     61 C19        -6.2950   -1.4140   -1.3470 c3        1 MOL      0.061281
     62 C20        -6.2770   -2.3930   -0.1670 c         1 MOL      0.190075
     63 O10        -6.6760   -3.5140   -0.2580 o         1 MOL     -0.424176
     64 C21        -5.4030   -1.7760   -2.5360 c3        1 MOL     -0.080481
     65 C22        -3.9990   -2.1160   -2.2750 c         1 MOL      0.599454
     66 N7         -3.4420   -2.9730   -3.0810 n         1 MOL     -0.763590
     67 O11        -3.2950   -1.6330   -1.3620 o         1 MOL     -0.355760
     68 H28        -4.9430    0.2810   -1.2780 hn        1 MOL      0.189334
     69 H29        -7.3340   -1.4540   -1.6680 h1        1 MOL      0.101475
     70 H30        -5.5010   -0.9750   -3.2740 hc        1 MOL      0.033981
     71 H31        -5.9650   -2.6100   -2.9480 hc        1 MOL      0.033981
     72 H32        -4.0000   -3.5550   -3.6870 hn        1 MOL      0.359595
     73 H33        -2.4420   -3.0570   -3.0260 hn        1 MOL      0.359595
     74 N8         -5.7430   -1.9080    0.8990 n         1 MOL      0.054181
     75 C23        -5.6740   -2.6880    2.0970 c3        1 MOL     -0.452863
     76 C24        -4.2430   -3.2310    2.4580 c         1 MOL      0.614850
     77 O12        -4.1410   -4.1080    3.3420 o         1 MOL     -0.578089
     78 H34        -5.4450   -0.9420    0.9740 hn        1 MOL      0.186783
     79 H35        -6.2850   -3.5930    2.0260 h1        1 MOL      0.180950
     80 H36        -6.0360   -2.0740    2.9170 h1        1 MOL      0.180950
     81 N9         -3.2330   -2.8720    1.6880 n         1 MOL     -0.367648
     82 C25        -1.8820   -3.5690    1.5200 c3        1 MOL      0.194106
     83 C26        -0.7340   -2.6020    1.1750 c         1 MOL      0.184100
     84 O13        -0.9430   -1.5590    0.5370 o         1 MOL     -0.271087
     85 C27        -2.0770   -4.5600    0.3800 c3        1 MOL      0.117320
     86 C28        -2.9730   -5.7780    0.6090 ca        1 MOL     -0.051790
     87 C29        -4.3780   -5.6750    0.2880 ca        1 MOL     -0.105443
     88 C30        -2.4560   -6.9950    1.0640 ca        1 MOL     -0.105443
     89 C31        -5.2700   -6.6550    0.6260 ca        1 MOL     -0.289338
     90 C32        -3.3580   -8.0020    1.4240 ca        1 MOL     -0.289338
     91 C33        -4.7620   -7.7300    1.3300 ca        1 MOL      0.406392
     92 O14        -5.7130   -8.6300    1.8440 oh        1 MOL     -0.509257
     93 H37        -3.2530   -2.0070    1.1800 hn        1 MOL      0.099889
     94 H38        -1.5880   -4.1510    2.4010 h1        1 MOL      0.023132
     95 H39        -1.0970   -4.9660    0.1120 hc        1 MOL     -0.036502
     96 H40        -2.3250   -4.1230   -0.5890 hc        1 MOL     -0.036502
     97 H41        -4.7740   -4.8030   -0.2020 ha        1 MOL      0.104169
     98 H42        -1.4320   -7.1110    1.3800 ha        1 MOL      0.104169
     99 H43        -6.3430   -6.4900    0.5970 ha        1 MOL      0.141919
    100 H44        -2.9880   -8.8690    1.9400 ha        1 MOL      0.141919
    101 H45        -5.3830   -9.2700    2.4720 ho        1 MOL      0.347830
    102 N10         0.4910   -2.9920    1.5680 n         1 MOL     -0.287355
    103 C34         1.7490   -2.2510    1.2010 c3        1 MOL     -0.183764
    104 C35         2.9810   -3.1620    0.9750 c         1 MOL      0.503152
    105 O15         3.3810   -3.9050    1.8490 o         1 MOL     -0.518958
    106 C36         2.0050   -0.9830    2.0930 c3        1 MOL      0.025090
    107 C37         2.2960   -1.4660    3.5730 c3        1 MOL      0.323474
    108 C38         0.9730    0.1580    1.9700 c3        1 MOL     -0.573579
    109 C39         2.0620   -0.4890    4.7550 c3        1 MOL     -0.448690
    110 H46         0.5970   -3.8250    2.1390 hn        1 MOL      0.312265
    111 H47         1.6470   -1.9180    0.1750 h1        1 MOL      0.066196
    112 H48         2.9430   -0.5820    1.7350 hc        1 MOL     -0.063061
    113 H49         3.3380   -1.7640    3.6570 hc        1 MOL     -0.037945
    114 H50         1.7430   -2.4020    3.7330 hc        1 MOL     -0.037945
    115 H51         1.4030    1.0700    2.3960 hc        1 MOL      0.184786
    116 H52         0.7840    0.3440    0.9180 hc        1 MOL      0.184786
    117 H53         0.0160   -0.0650    2.4500 hc        1 MOL      0.184786
    118 H54         2.5630    0.4580    4.5440 hc        1 MOL      0.105046
    119 H55         1.0010   -0.2020    4.7580 hc        1 MOL      0.105046
    120 H56         2.4820   -0.9840    5.6260 hc        1 MOL      0.105046
    121 N11         3.5660   -3.1090   -0.2400 n         1 MOL     -0.162089
    122 C40         4.8420   -3.7480   -0.4920 c3        1 MOL     -0.157299
    123 C41         5.9640   -2.8550    0.0640 c         1 MOL      0.447431
    124 O16         5.6300   -1.7900    0.6230 o         1 MOL     -0.329980
    125 C42         5.0690   -3.8030   -1.9600 c3        1 MOL      0.017395
    126 O17         5.0990   -2.4530   -2.5560 oh        1 MOL     -0.550507
    127 H57         3.2320   -2.5450   -1.0120 hn        1 MOL      0.085228
    128 H58         4.8460   -4.7170   -0.0030 h1        1 MOL      0.120295
    129 H59         4.3140   -4.4000   -2.4730 h1        1 MOL      0.083090
    130 H60         6.0000   -4.3060   -2.2090 h1        1 MOL      0.083090
    131 H61         4.2320   -2.1220   -2.7960 ho        1 MOL      0.370736
    132 N12         7.2080   -3.3240    0.0950 n         1 MOL     -0.410590
    133 C43         8.3820   -2.6780    0.6660 c3        1 MOL      0.032602
    134 C44         8.7410   -1.3690   -0.0790 c         1 MOL      0.531509
    135 O18         9.2770   -0.4340    0.5150 o         1 MOL     -0.516367
    136 C45         9.5740   -3.6120    0.6930 c3        1 MOL     -0.119736
    137 H62         7.4240   -4.1940   -0.3790 hn        1 MOL      0.291874
    138 H63         8.2590   -2.4350    1.7200 h1        1 MOL      0.097832
    139 H64        10.3790   -3.1480    1.2610 hc        1 MOL      0.047167
    140 H65         9.4470   -4.6140    1.0880 hc        1 MOL      0.047167
    141 H66         9.9200   -3.7560   -0.3330 hc        1 MOL      0.047167
    142 N13         8.4500   -1.3410   -1.4260 n         1 MOL     -0.453809
    143 C46         8.4420   -0.0880   -2.2200 c3        1 MOL      0.121739
    144 C47         7.3190    0.8850   -1.8440 c         1 MOL      0.249785
    145 O19         7.5890    2.1320   -1.9670 o         1 MOL     -0.511299
    146 C48         8.4690   -0.4370   -3.6980 c3        1 MOL     -0.358117
    147 H67         8.0150   -2.1040   -1.9260 hn        1 MOL      0.292865
    148 H68         9.4040    0.3720   -2.0170 h1        1 MOL      0.110094
    149 H69         9.4010   -0.9600   -3.8800 hc        1 MOL      0.107231
    150 H70         7.5450   -0.9570   -3.9610 hc        1 MOL      0.107231
    151 H71         8.4310    0.4790   -4.2920 hc        1 MOL      0.107231
    152 N14         6.1610    0.4560   -1.3770 n         1 MOL      0.130765
    153 C49         5.1440    1.2840   -0.8040 c3        1 MOL     -0.007038
    154 C50         5.5840    1.8440    0.5880 c         1 MOL      0.342639
    155 O20         5.5360    3.0760    0.8320 o         1 MOL     -0.523874
    156 C51         3.7920    0.6250   -0.9300 c3        1 MOL      0.056276
    157 C52         3.0950    0.6160   -2.2840 c3        1 MOL     -0.111525
    158 C53         2.2470   -0.6050   -2.3400 c         1 MOL      0.610414
    159 O21         2.6140   -1.7230   -2.8130 o         1 MOL     -0.602528
    160 O22         1.1260   -0.5570   -1.7760 o         1 MOL     -0.602528
    161 H72         5.9850   -0.5350   -1.3880 hn        1 MOL      0.003773
    162 H73         5.1890    2.2250   -1.3680 h1        1 MOL      0.047649
    163 H74         3.1000    1.1330   -0.2540 hc        1 MOL      0.015861
    164 H75         3.9120   -0.4150   -0.6220 hc        1 MOL      0.015861
    165 H76         3.8700    0.6240   -3.0510 hc        1 MOL      0.010488
    166 H77         2.5070    1.5190   -2.4360 hc        1 MOL      0.010488
    167 N15         6.2540    1.0030    1.4160 n         1 MOL     -0.025801
    168 C54         6.9980    1.5220    2.5750 c3        1 MOL     -0.191230
    169 H78         7.6060    2.3710    2.2650 h1        1 MOL      0.084920
    170 H79         6.2960    1.8390    3.3460 h1        1 MOL      0.084920
    171 H80         7.6450    0.7390    2.9720 h1        1 MOL      0.084920
    172 H81         6.2030    0.0090    1.2210 hn        1 MOL      0.076813
    173 Ca1        -1.2310    0.0330   -1.5400 Ca        1 MOL      1.667067
    174 O23         0.1920    2.3790   -0.9400 oh        1 MOL     -0.908771
    175 H82         0.2020    2.9480   -1.7080 ho        1 MOL      0.435507
    176 H83         1.0350    2.5160   -0.5210 ho        1 MOL      0.435507
    177 O24        -0.2330   -2.8790   -2.0610 oh        1 MOL     -0.908771
    178 H84         0.5310   -2.3210   -2.2060 ho        1 MOL      0.435507
    179 H85         0.1360   -3.7580   -1.9170 ho        1 MOL      0.435507
    180 O25        -0.9500   -1.0140   -4.0480 oh        1 MOL     -0.908771
    181 H86        -1.6970   -0.9150   -4.6380 ho        1 MOL      0.435507
    182 H87        -0.2600   -1.3920   -4.5820 ho        1 MOL      0.435507
@<TRIPOS>BOND
     1    1    2 1   
     2    1    4 1   
     3    1    5 1   
     4    1    6 1   
     5    2    3 2   
     6    2    7 1   
     7    7    8 1   
     8    7   15 1   
     9    8    9 1   
    10    8   11 1   
    11    8   16 1   
    12    9   10 2   
    13    9   19 1   
    14   11   12 1   
    15   11   17 1   
    16   11   18 1   
    17   12   13 1   
    18   12   14 1   
    19   19   20 1   
    20   19   28 1   
    21   20   21 1   
    22   20   23 1   
    23   20   29 1   
    24   21   22 2   
    25   21   41 1   
    26   23   24 1   
    27   23   30 1   
    28   23   31 1   
    29   24   25 1   
    30   24   32 1   
    31   24   33 1   
    32   25   26 1   
    33   25   34 1   
    34   25   35 1   
    35   26   27 1   
    36   26   36 1   
    37   26   37 1   
    38   27   38 1   
    39   27   39 1   
    40   27   40 1   
    41   41   42 1   
    42   41   49 1   
    43   42   43 1   
    44   42   45 1   
    45   42   50 1   
    46   43   44 2   
    47   43   53 1   
    48   45   46 1   
    49   45   51 1   
    50   45   52 1   
    51   46   47 1   
    52   46   48 1   
    53   53   54 1   
    54   53   57 1   
    55   54   55 1   
    56   54   58 1   
    57   54   59 1   
    58   55   56 2   
    59   55   60 1   
    60   60   61 1   
    61   60   68 1   
    62   61   62 1   
    63   61   64 1   
    64   61   69 1   
    65   62   63 2   
    66   62   74 1   
    67   64   65 1   
    68   64   70 1   
    69   64   71 1   
    70   65   66 1   
    71   65   67 2   
    72   66   72 1   
    73   66   73 1   
    74   74   75 1   
    75   74   78 1   
    76   75   76 1   
    77   75   79 1   
    78   75   80 1   
    79   76   77 2   
    80   76   81 1   
    81   81   82 1   
    82   81   93 1   
    83   82   83 1   
    84   82   85 1   
    85   82   94 1   
    86   83   84 2   
    87   83  102 1   
    88   85   86 1   
    89   85   95 1   
    90   85   96 1   
    91   86   87 ar  
    92   86   88 ar  
    93   87   89 ar  
    94   87   97 1   
    95   88   90 ar  
    96   88   98 1   
    97   89   91 ar  
    98   89   99 1   
    99   90   91 ar  
   100   90  100 1   
   101   91   92 1   
   102   92  101 1   
   103  102  103 1   
   104  102  110 1   
   105  103  104 1   
   106  103  106 1   
   107  103  111 1   
   108  104  105 2   
   109  104  121 1   
   110  106  107 1   
   111  106  108 1   
   112  106  112 1   
   113  107  109 1   
   114  107  113 1   
   115  107  114 1   
   116  108  115 1   
   117  108  116 1   
   118  108  117 1   
   119  109  118 1   
   120  109  119 1   
   121  109  120 1   
   122  121  122 1   
   123  121  127 1   
   124  122  123 1   
   125  122  125 1   
   126  122  128 1   
   127  123  124 2   
   128  123  132 1   
   129  125  126 1   
   130  125  129 1   
   131  125  130 1   
   132  126  131 1   
   133  132  133 1   
   134  132  137 1   
   135  133  134 1   
   136  133  136 1   
   137  133  138 1   
   138  134  135 2   
   139  134  142 1   
   140  136  139 1   
   141  136  140 1   
   142  136  141 1   
   143  142  143 1   
   144  142  147 1   
   145  143  144 1   
   146  143  146 1   
   147  143  148 1   
   148  144  145 2   
   149  144  152 1   
   150  146  149 1   
   151  146  150 1   
   152  146  151 1   
   153  152  153 1   
   154  152  161 1   
   155  153  154 1   
   156  153  156 1   
   157  153  162 1   
   158  154  155 2   
   159  154  167 1   
   160  156  157 1   
   161  156  163 1   
   162  156  164 1   
   163  157  158 1   
   164  157  165 1   
   165  157  166 1   
   166  158  159 1   
   167  158  160 1   
   168  167  168 1   
   169  167  172 1   
   170  168  169 1   
   171  168  170 1   
   172  168  171 1   
   173  174  175 1   
   174  174  176 1   
   175  177  178 1   
   176  177  179 1   
   177  180  181 1   
   178  180  182 1   
@<TRIPOS>SUBSTRUCTURE
     1 MOL         1 TEMP              0 ****  ****    0 ROOT
