@<TRIPOS>MOLECULE
MOL
  189   185     1     0     0
SMALL
resp


@<TRIPOS>ATOM
      1 C1          0.2480    4.3890    5.6110 c3        1 MOL     -0.360625
      2 C2         -0.4190    3.7120    4.4090 c         1 MOL      0.720022
      3 O1         -0.2800    2.4870    4.2260 o         1 MOL     -0.605628
      4 H1          1.0230    3.7350    6.0120 hc        1 MOL      0.090935
      5 H2          0.6960    5.3310    5.2950 hc        1 MOL      0.090935
      6 H3         -0.4980    4.5800    6.3820 hc        1 MOL      0.090935
      7 N1         -1.0990    4.4890    3.5740 n         1 MOL     -0.474217
      8 C3         -1.8270    4.0010    2.4560 c3        1 MOL      0.099257
      9 C4         -1.8580    5.0140    1.1970 c         1 MOL      0.587240
     10 O2         -2.0740    6.2220    1.4020 o         1 MOL     -0.576120
     11 C5         -3.2600    3.7790    2.8040 c3        1 MOL     -0.373353
     12 C6         -4.0760    3.0820    1.7490 c         1 MOL      0.876744
     13 O3         -5.2910    3.0340    2.0010 o         1 MOL     -0.728579
     14 O4         -3.5890    2.5120    0.7890 o         1 MOL     -0.728579
     15 H4         -1.0850    5.4930    3.6840 hn        1 MOL      0.273669
     16 H5         -1.2980    3.1330    2.0600 h1        1 MOL      0.065266
     17 H6         -3.6950    4.7410    3.0750 hc        1 MOL      0.074309
     18 H7         -3.1890    3.1030    3.6610 hc        1 MOL      0.074309
     19 N2         -1.6100    4.5420   -0.0570 n         1 MOL     -0.375579
     20 C7         -1.6640    5.4220   -1.3130 c3        1 MOL      0.073137
     21 C8         -2.7110    4.9880   -2.3610 c         1 MOL      0.501842
     22 O5         -3.4550    5.8320   -2.8090 o         1 MOL     -0.557158
     23 C9         -0.2280    5.6790   -1.9660 c3        1 MOL      0.016752
     24 C10         0.9140    6.2880   -1.0340 c3        1 MOL      0.069819
     25 C11        -0.1700    6.5860   -3.1720 c3        1 MOL     -0.087447
     26 C12         0.7200    7.7290   -0.4890 c3        1 MOL     -0.147659
     27 H8         -1.4190    3.5680   -0.2310 hn        1 MOL      0.206512
     28 H9         -1.9860    6.4280   -1.0330 h1        1 MOL      0.057611
     29 H10         0.0260    4.6980   -2.3620 hc        1 MOL      0.006348
     30 H11         1.8710    6.2010   -1.5670 hc        1 MOL     -0.001545
     31 H12         0.9740    5.6300   -0.1700 hc        1 MOL     -0.001545
     32 H13        -0.6130    6.1700   -4.0840 hc        1 MOL      0.012875
     33 H14        -0.7810    7.4730   -2.9670 hc        1 MOL      0.012875
     34 H15         0.8060    6.9660   -3.4900 hc        1 MOL      0.012875
     35 H16        -0.1480    7.7960    0.1570 hc        1 MOL      0.025086
     36 H17         1.6060    8.0690    0.0540 hc        1 MOL      0.025086
     37 H18         0.7080    8.4190   -1.3350 hc        1 MOL      0.025086
     38 N3         -2.8480    3.6620   -2.7220 n         1 MOL     -0.334855
     39 C13        -3.8930    3.1760   -3.6030 c3        1 MOL     -0.000228
     40 C14        -5.3360    3.0210   -3.0040 c         1 MOL      0.380591
     41 O6         -6.3050    3.0270   -3.7800 o         1 MOL     -0.550956
     42 C15        -3.3980    1.8460   -4.1590 c3        1 MOL     -0.275144
     43 C16        -2.5000    0.9590   -3.2720 c         1 MOL      0.613773
     44 O7         -2.6090    1.0320   -2.0200 o         1 MOL     -0.656423
     45 O8         -1.6800    0.0680   -3.6810 o         1 MOL     -0.656423
     46 H19        -2.4660    2.9740   -2.0980 hn        1 MOL      0.263509
     47 H20        -3.9270    3.8940   -4.4130 h1        1 MOL      0.107269
     48 H21        -2.8660    2.0580   -5.0860 hc        1 MOL      0.084125
     49 H22        -4.2190    1.2150   -4.5220 hc        1 MOL      0.084125
     50 N4         -5.4420    2.8620   -1.6840 n         1 MOL     -0.114768
     51 C17        -6.6550    2.5630   -1.0570 c3        1 MOL     -0.041303
     52 C18        -7.2250    1.1610   -1.1510 c         1 MOL      0.390139
     53 O9         -8.4400    1.0020   -0.9980 o         1 MOL     -0.582500
     54 H23        -4.6530    2.9650   -1.0760 hn        1 MOL      0.129419
     55 H24        -7.4620    3.2480   -1.3100 h1        1 MOL      0.060711
     56 H25        -6.4800    2.7920    0.0000 h1        1 MOL      0.060711
     57 N5         -6.3720    0.2210   -1.4890 n         1 MOL     -0.032620
     58 C19        -6.7740   -1.0650   -1.9900 c3        1 MOL     -0.129528
     59 C20        -7.3040   -2.0490   -0.8620 c         1 MOL      0.491424
     60 O10        -7.9330   -3.0200   -1.1830 o         1 MOL     -0.531175
     61 C21        -5.6940   -1.7150   -2.8990 c3        1 MOL     -0.134467
     62 C22        -4.2930   -1.8670   -2.2210 c         1 MOL      0.693353
     63 O11        -4.1760   -1.5380   -0.9820 o         1 MOL     -0.641013
     64 O12        -3.3900   -2.5090   -2.8120 o         1 MOL     -0.641013
     65 H26        -5.3890    0.4500   -1.4330 hn        1 MOL      0.078479
     66 H27        -7.6660   -0.9810   -2.6220 h1        1 MOL      0.103452
     67 H28        -5.4580   -1.0940   -3.7620 hc        1 MOL      0.049027
     68 H29        -6.0980   -2.6360   -3.3150 hc        1 MOL      0.049027
     69 N6         -6.9080   -1.7170    0.4080 n         1 MOL     -0.268559
     70 C23        -7.1490   -2.6210    1.4980 c3        1 MOL     -0.243907
     71 C24        -5.9660   -3.6270    1.7400 c         1 MOL      0.545240
     72 O13        -6.1980   -4.6420    2.4290 o         1 MOL     -0.612004
     73 H30        -6.3050   -0.9140    0.5190 hn        1 MOL      0.253165
     74 H31        -8.0380   -3.1950    1.2600 h1        1 MOL      0.111202
     75 H32        -7.2540   -2.0640    2.4250 h1        1 MOL      0.111202
     76 N7         -4.8070   -3.3670    1.1930 n         1 MOL     -0.251965
     77 C25        -3.6370   -4.2630    1.2870 c3        1 MOL      0.034453
     78 C26        -2.3350   -3.4170    1.6160 c         1 MOL      0.287587
     79 O14        -2.3260   -2.2260    1.5230 o         1 MOL     -0.390637
     80 C27        -3.4060   -5.1780    0.0660 c3        1 MOL      0.038811
     81 C28        -4.5270   -6.1360   -0.2470 c3        1 MOL     -0.341714
     82 C29        -4.0700   -7.1430   -1.3410 c         1 MOL      0.700422
     83 N8         -4.9730   -7.8970   -1.9710 n         1 MOL     -0.800547
     84 O15        -2.9050   -7.4360   -1.4460 o         1 MOL     -0.546706
     85 H33        -4.7770   -2.5800    0.5530 hn        1 MOL      0.172135
     86 H34        -3.7520   -4.8310    2.2120 h1        1 MOL      0.039805
     87 H35        -2.5100   -5.7660    0.2580 hc        1 MOL      0.042528
     88 H36        -3.2100   -4.5450   -0.8030 hc        1 MOL      0.042528
     89 H37        -5.4610   -5.6690   -0.5540 hc        1 MOL      0.112047
     90 H38        -4.9390   -6.6040    0.6420 hc        1 MOL      0.112047
     91 H39        -5.9330   -7.8370   -1.6720 hn        1 MOL      0.343406
     92 H40        -4.6030   -8.7630   -2.3270 hn        1 MOL      0.343406
     93 N9         -1.2260   -3.9920    2.1690 n         1 MOL     -0.266073
     94 C30         0.0570   -3.3200    2.3670 c3        1 MOL     -0.074083
     95 C31         1.0700   -3.6490    1.2680 c         1 MOL      0.565920
     96 O16         1.4490   -4.7980    1.1750 o         1 MOL     -0.578760
     97 C32         0.6120   -3.5960    3.7810 c3        1 MOL      0.339699
     98 C33         1.6970   -2.5320    4.2150 c3        1 MOL     -0.409861
     99 C34        -0.4990   -3.5910    4.8410 c3        1 MOL     -0.409861
    100 H41        -1.2410   -4.9750    2.4210 hn        1 MOL      0.238670
    101 H42        -0.1080   -2.2590    2.2240 h1        1 MOL      0.024601
    102 H43         1.1070   -4.5480    3.9460 hc        1 MOL     -0.043974
    103 H44         2.1490   -2.7300    5.1810 hc        1 MOL      0.090958
    104 H45         2.3850   -2.3760    3.3850 hc        1 MOL      0.090958
    105 H46         1.1990   -1.5690    4.4040 hc        1 MOL      0.090958
    106 H47        -1.0330   -2.6480    4.8270 hc        1 MOL      0.090958
    107 H48        -1.0840   -4.4940    4.6790 hc        1 MOL      0.090958
    108 H49        -0.0950   -3.7740    5.8370 hc        1 MOL      0.090958
    109 N10         1.4450   -2.5710    0.4640 n         1 MOL     -0.452497
    110 C35         2.6100   -2.6090   -0.4540 c3        1 MOL      0.218626
    111 C36         3.9520   -2.3810    0.3730 c         1 MOL      0.001408
    112 O17         3.9440   -1.7030    1.4080 o         1 MOL     -0.056844
    113 C37         2.4150   -1.6140   -1.6040 c3        1 MOL     -0.628320
    114 C38         3.5670   -1.4820   -2.5490 c         1 MOL      0.858497
    115 N11         3.9590   -2.5360   -3.1830 n         1 MOL     -0.843283
    116 O18         4.3200   -0.5180   -2.5110 o         1 MOL     -0.640284
    117 H50         1.1100   -1.6680    0.7300 hn        1 MOL      0.392296
    118 H51         2.6870   -3.6040   -0.8950 h1        1 MOL      0.062657
    119 H52         2.2190   -0.6350   -1.1560 hc        1 MOL      0.211747
    120 H53         1.4670   -1.7560   -2.1270 hc        1 MOL      0.211747
    121 H54         3.4040   -3.3830   -3.1470 hn        1 MOL      0.376182
    122 H55         4.8840   -2.4290   -3.5620 hn        1 MOL      0.376182
    123 N12         5.1240   -2.9470   -0.1080 n         1 MOL     -0.075766
    124 C39         6.3920   -2.7360    0.5180 c3        1 MOL      0.024109
    125 C40         6.7410   -1.2140    0.7050 c         1 MOL      0.520648
    126 O19         7.4130   -0.8950    1.6940 o         1 MOL     -0.623747
    127 C41         7.4230   -3.4960   -0.2680 c3        1 MOL     -0.241203
    128 C42         7.5810   -3.0500   -1.7200 ca        1 MOL     -0.061702
    129 C43         6.9500   -3.8670   -2.7080 ca        1 MOL     -0.049350
    130 C44         8.2540   -1.8920   -2.0900 ca        1 MOL     -0.049350
    131 C45         7.0490   -3.5830   -4.0290 ca        1 MOL     -0.289245
    132 C46         8.4280   -1.6420   -3.4110 ca        1 MOL     -0.289245
    133 C47         7.7750   -2.4130   -4.4050 ca        1 MOL      0.358325
    134 O20         7.8390   -2.0280   -5.7560 oh        1 MOL     -0.579222
    135 H56         5.0220   -3.5210   -0.9400 hn        1 MOL      0.112664
    136 H57         6.2480   -3.2010    1.4860 h1        1 MOL      0.047133
    137 H58         7.1930   -4.5500   -0.1230 hc        1 MOL      0.090686
    138 H59         8.3960   -3.4050    0.2100 hc        1 MOL      0.090686
    139 H60         6.5710   -4.8360   -2.3980 ha        1 MOL      0.101769
    140 H61         8.6860   -1.2540   -1.3420 ha        1 MOL      0.101769
    141 H62         6.8290   -4.2760   -4.8290 ha        1 MOL      0.140038
    142 H63         9.0120   -0.7590   -3.6110 ha        1 MOL      0.140038
    143 H64         8.4620   -1.3190   -5.8840 ho        1 MOL      0.426673
    144 N13         6.2080   -0.3180   -0.1430 n         1 MOL      0.104479
    145 C48         6.4660    1.1770   -0.1030 c3        1 MOL     -0.244959
    146 C49         5.6390    1.8280    1.0060 c         1 MOL      0.444503
    147 O21         5.9450    2.9950    1.3410 o         1 MOL     -0.508811
    148 C50         6.3320    1.8580   -1.4660 c3        1 MOL      0.143068
    149 C51         7.2550    3.1410   -1.5950 c3        1 MOL     -0.187896
    150 C52         8.7390    2.8830   -1.5140 c         1 MOL      0.592592
    151 O22         9.2180    1.8720   -2.0720 o         1 MOL     -0.692021
    152 O23         9.4530    3.6060   -0.7830 o         1 MOL     -0.692021
    153 H65         5.6620   -0.6560   -0.9260 hn        1 MOL      0.155054
    154 H66         7.5360    1.2970    0.0770 h1        1 MOL      0.181659
    155 H67         5.3000    2.1590   -1.6640 hc        1 MOL     -0.005979
    156 H68         6.6970    1.1770   -2.2350 hc        1 MOL     -0.005979
    157 H69         6.9230    3.8890   -0.8710 hc        1 MOL      0.022180
    158 H70         6.9430    3.5880   -2.5390 hc        1 MOL      0.022180
    159 N14         4.6210    1.1060    1.5440 n         1 MOL     -0.201964
    160 C53         3.8190    1.4640    2.7100 c3        1 MOL      0.014878
    161 C54         4.3190    0.8410    4.0460 c         1 MOL      0.407751
    162 O24         4.4290    1.5020    5.0550 o         1 MOL     -0.556582
    163 C55         2.3820    1.0340    2.4280 c3        1 MOL      0.237680
    164 C56         1.7550    1.7080    1.1280 c3        1 MOL     -0.204987
    165 C57         0.3380    1.2590    0.7470 c         1 MOL      0.620752
    166 O25        -0.4960    2.0440    0.1760 o         1 MOL     -0.675348
    167 O26        -0.0200    0.0790    0.9930 o         1 MOL     -0.675348
    168 H71         4.6310    0.1450    1.2190 hn        1 MOL     -0.031556
    169 H72         3.7550    2.5380    2.8590 h1        1 MOL      0.034161
    170 H73         1.8010    1.2360    3.3310 hc        1 MOL     -0.053969
    171 H74         2.5250   -0.0400    2.3420 hc        1 MOL     -0.053969
    172 H75         2.4290    1.6820    0.2760 hc        1 MOL      0.040226
    173 H76         1.6660    2.7580    1.3930 hc        1 MOL      0.040226
    174 N15         4.7290   -0.3870    3.9490 n         1 MOL      0.043575
    175 C58         5.1900   -1.2480    5.0350 c3        1 MOL     -0.345701
    176 H77         5.3610   -2.2540    4.6530 h1        1 MOL      0.106134
    177 H78         6.1190   -0.8510    5.4440 h1        1 MOL      0.106134
    178 H79         4.4330   -1.2820    5.8190 h1        1 MOL      0.106134
    179 H80         4.6370   -0.9640    3.1260 hn        1 MOL      0.038671
    180 Ca1        -2.5760    0.1700    0.4320 Ca        1 MOL      1.736219
    181 O27        -2.0870    0.6150    3.3010 oh        1 MOL     -0.925701
    182 H81        -2.3440    0.0820    4.0560 ho        1 MOL      0.429657
    183 H82        -1.4440    1.2330    3.6630 ho        1 MOL      0.429657
    184 O28        -4.8490    0.0010    1.8030 oh        1 MOL     -0.925701
    185 H83        -5.3070    0.8340    1.9620 ho        1 MOL      0.429657
    186 H84        -4.6790   -0.3430    2.6780 ho        1 MOL      0.429657
    187 O29        -1.3260   -1.3850   -1.2390 oh        1 MOL     -0.925701
    188 H85        -1.2200   -0.7870   -1.9820 ho        1 MOL      0.429657
    189 H86        -2.0510   -1.9600   -1.4870 ho        1 MOL      0.429657
@<TRIPOS>BOND
     1    1    2 1   
     2    1    4 1   
     3    1    5 1   
     4    1    6 1   
     5    2    3 2   
     6    2    7 1   
     7    7    8 1   
     8    7   15 1   
     9    8    9 1   
    10    8   11 1   
    11    8   16 1   
    12    9   10 2   
    13    9   19 1   
    14   11   12 1   
    15   11   17 1   
    16   11   18 1   
    17   12   13 1   
    18   12   14 1   
    19   19   20 1   
    20   19   27 1   
    21   20   21 1   
    22   20   23 1   
    23   20   28 1   
    24   21   22 2   
    25   21   38 1   
    26   23   24 1   
    27   23   25 1   
    28   23   29 1   
    29   24   26 1   
    30   24   30 1   
    31   24   31 1   
    32   25   32 1   
    33   25   33 1   
    34   25   34 1   
    35   26   35 1   
    36   26   36 1   
    37   26   37 1   
    38   38   39 1   
    39   38   46 1   
    40   39   40 1   
    41   39   42 1   
    42   39   47 1   
    43   40   41 2   
    44   40   50 1   
    45   42   43 1   
    46   42   48 1   
    47   42   49 1   
    48   43   44 1   
    49   43   45 1   
    50   50   51 1   
    51   50   54 1   
    52   51   52 1   
    53   51   55 1   
    54   51   56 1   
    55   52   53 2   
    56   52   57 1   
    57   57   58 1   
    58   57   65 1   
    59   58   59 1   
    60   58   61 1   
    61   58   66 1   
    62   59   60 2   
    63   59   69 1   
    64   61   62 1   
    65   61   67 1   
    66   61   68 1   
    67   62   63 1   
    68   62   64 1   
    69   69   70 1   
    70   69   73 1   
    71   70   71 1   
    72   70   74 1   
    73   70   75 1   
    74   71   72 2   
    75   71   76 1   
    76   76   77 1   
    77   76   85 1   
    78   77   78 1   
    79   77   80 1   
    80   77   86 1   
    81   78   79 2   
    82   78   93 1   
    83   80   81 1   
    84   80   87 1   
    85   80   88 1   
    86   81   82 1   
    87   81   89 1   
    88   81   90 1   
    89   82   83 1   
    90   82   84 2   
    91   83   91 1   
    92   83   92 1   
    93   93   94 1   
    94   93  100 1   
    95   94   95 1   
    96   94   97 1   
    97   94  101 1   
    98   95   96 2   
    99   95  109 1   
   100   97   98 1   
   101   97   99 1   
   102   97  102 1   
   103   98  103 1   
   104   98  104 1   
   105   98  105 1   
   106   99  106 1   
   107   99  107 1   
   108   99  108 1   
   109  109  110 1   
   110  109  117 1   
   111  110  111 1   
   112  110  113 1   
   113  110  118 1   
   114  111  112 2   
   115  111  123 1   
   116  113  114 1   
   117  113  119 1   
   118  113  120 1   
   119  114  115 1   
   120  114  116 2   
   121  115  121 1   
   122  115  122 1   
   123  123  124 1   
   124  123  135 1   
   125  124  125 1   
   126  124  127 1   
   127  124  136 1   
   128  125  126 2   
   129  125  144 1   
   130  127  128 1   
   131  127  137 1   
   132  127  138 1   
   133  128  129 ar  
   134  128  130 ar  
   135  129  131 ar  
   136  129  139 1   
   137  130  132 ar  
   138  130  140 1   
   139  131  133 ar  
   140  131  141 1   
   141  132  133 ar  
   142  132  142 1   
   143  133  134 1   
   144  134  143 1   
   145  144  145 1   
   146  144  153 1   
   147  145  146 1   
   148  145  148 1   
   149  145  154 1   
   150  146  147 2   
   151  146  159 1   
   152  148  149 1   
   153  148  155 1   
   154  148  156 1   
   155  149  150 1   
   156  149  157 1   
   157  149  158 1   
   158  150  151 1   
   159  150  152 1   
   160  159  160 1   
   161  159  168 1   
   162  160  161 1   
   163  160  163 1   
   164  160  169 1   
   165  161  162 2   
   166  161  174 1   
   167  163  164 1   
   168  163  170 1   
   169  163  171 1   
   170  164  165 1   
   171  164  172 1   
   172  164  173 1   
   173  165  166 1   
   174  165  167 1   
   175  174  175 1   
   176  174  179 1   
   177  175  176 1   
   178  175  177 1   
   179  175  178 1   
   180  181  182 1   
   181  181  183 1   
   182  184  185 1   
   183  184  186 1   
   184  187  188 1   
   185  187  189 1   
@<TRIPOS>SUBSTRUCTURE
     1 MOL         1 TEMP              0 ****  ****    0 ROOT
