@<TRIPOS>MOLECULE
MOL
  186   183     1     0     0
SMALL
resp


@<TRIPOS>ATOM
      1 C1          1.3730   -2.6720    6.1190 c3        1 MOL     -0.325833
      2 C2          1.5750   -2.3440    4.6520 c         1 MOL      0.785484
      3 O1          0.7280   -2.7400    3.8760 o         1 MOL     -0.585792
      4 H1          0.9320   -1.8130    6.6250 hc        1 MOL      0.073348
      5 H2          0.7050   -3.5290    6.2120 hc        1 MOL      0.073348
      6 H3          2.3340   -2.9090    6.5750 hc        1 MOL      0.073348
      7 N1          2.6950   -1.7260    4.2320 n         1 MOL     -0.782925
      8 C3          3.1590   -1.5860    2.8320 c3        1 MOL      0.314747
      9 C4          3.5970   -2.9850    2.2980 c         1 MOL      0.689933
     10 O2          4.6900   -3.4210    2.6800 o         1 MOL     -0.591004
     11 C5          4.4090   -0.6070    2.9060 c3        1 MOL     -0.316849
     12 C6          4.9700   -0.2600    1.5050 c         1 MOL      0.853484
     13 O3          4.2660   -0.5000    0.5130 o         1 MOL     -0.715878
     14 O4          5.9720    0.5310    1.3690 o         1 MOL     -0.715878
     15 H4          3.3130   -1.4050    4.9670 hn        1 MOL      0.342662
     16 H5          2.3530   -1.1450    2.2520 h1        1 MOL      0.013575
     17 H6          5.2600   -1.0620    3.4000 hc        1 MOL      0.062556
     18 H7          4.0700    0.3470    3.3110 hc        1 MOL      0.062556
     19 N2          2.7940   -3.6920    1.5140 n         1 MOL     -0.523098
     20 C7          2.9500   -5.0950    1.0780 c3        1 MOL     -0.104280
     21 C8          4.1510   -5.1300    0.1110 c         1 MOL      0.616410
     22 O5          5.0000   -5.9820    0.3430 o         1 MOL     -0.593197
     23 C9          1.5820   -5.6510    0.5500 c3        1 MOL      0.253997
     24 C10         0.5300   -5.4050    1.7400 c3        1 MOL      0.224958
     25 C11         1.6740   -7.0970    0.1870 c3        1 MOL     -0.328743
     26 C12        -0.9250   -5.8000    1.4190 c3        1 MOL     -0.143021
     27 H8          2.0020   -3.1730    1.1660 hn        1 MOL      0.287972
     28 H9          3.1670   -5.7060    1.9560 h1        1 MOL      0.072787
     29 H10         1.2830   -5.1000   -0.3430 hc        1 MOL     -0.016331
     30 H11         0.5060   -4.3750    2.0690 hc        1 MOL     -0.056093
     31 H12         0.8640   -5.9840    2.5980 hc        1 MOL     -0.056093
     32 H13         2.4570   -7.2600   -0.5510 hc        1 MOL      0.059773
     33 H14         1.9500   -7.6530    1.0810 hc        1 MOL      0.059773
     34 H15         0.7330   -7.4360   -0.2480 hc        1 MOL      0.059773
     35 H16        -0.9710   -6.8840    1.5270 hc        1 MOL      0.016860
     36 H17        -1.6010   -5.3210    2.1220 hc        1 MOL      0.016860
     37 H18        -1.2180   -5.4770    0.4240 hc        1 MOL      0.016860
     38 N3          4.2080   -4.1680   -0.8300 n         1 MOL     -0.382534
     39 C13         5.0400   -4.1520   -2.1040 c3        1 MOL     -0.018992
     40 C14         6.2120   -3.1180   -2.0920 c         1 MOL      0.367743
     41 O6          7.0140   -3.0610   -3.0500 o         1 MOL     -0.517574
     42 C15         4.1330   -3.9630   -3.3130 c3        1 MOL     -0.088387
     43 C16         3.1960   -2.7310   -3.3060 c         1 MOL      0.840321
     44 O7          2.3260   -2.6960   -4.1910 o         1 MOL     -0.721585
     45 O8          3.3650   -1.8690   -2.4410 o         1 MOL     -0.721585
     46 H19         3.4740   -3.4860   -0.7620 hn        1 MOL      0.213962
     47 H20         5.5280   -5.1210   -2.0360 h1        1 MOL      0.073922
     48 H21         3.5070   -4.8510   -3.3990 hc        1 MOL      0.013187
     49 H22         4.7310   -3.9560   -4.2240 hc        1 MOL      0.013187
     50 N4          6.3700   -2.2930   -1.0710 n         1 MOL      0.028226
     51 C17         7.5680   -1.4240   -0.8240 c3        1 MOL     -0.261634
     52 C18         7.6680   -0.3030   -1.8440 c         1 MOL      0.534577
     53 O9          8.3500   -0.3110   -2.8800 o         1 MOL     -0.543949
     54 H23         5.6690   -2.2860   -0.3380 hn        1 MOL      0.092182
     55 H24         8.3910   -2.1470   -0.8830 h1        1 MOL      0.082646
     56 H25         7.4490   -1.0580    0.1930 h1        1 MOL      0.082646
     57 N5          6.8360    0.6650   -1.4940 n         1 MOL     -0.124350
     58 C19         6.8860    1.9930   -2.1500 c3        1 MOL      0.061433
     59 C20         6.7800    3.1950   -1.1800 c         1 MOL      0.509156
     60 O10         6.6710    4.3760   -1.5610 o         1 MOL     -0.548599
     61 C21         5.9190    2.1310   -3.3450 c3        1 MOL     -0.286515
     62 C22         4.4900    1.7410   -2.9890 c         1 MOL      0.668567
     63 O11         4.1050    1.9500   -1.8330 o         1 MOL     -0.694093
     64 O12         3.7390    1.0500   -3.7830 o         1 MOL     -0.694093
     65 H26         6.3220    0.4660   -0.6450 hn        1 MOL     -0.040052
     66 H27         7.8820    2.0650   -2.6060 h1        1 MOL      0.025430
     67 H28         6.2460    1.3800   -4.0690 hc        1 MOL      0.080473
     68 H29         5.9470    3.1560   -3.6990 hc        1 MOL      0.080473
     69 N6          6.8890    2.8910    0.0860 n         1 MOL     -0.475581
     70 C23         6.8610    3.8740    1.1780 c3        1 MOL     -0.056244
     71 C24         5.4790    4.4050    1.4970 c         1 MOL      0.480218
     72 O13         5.4300    5.4590    2.1760 o         1 MOL     -0.609183
     73 H30         6.6850    1.9410    0.3720 hn        1 MOL      0.353159
     74 H31         7.4670    4.7660    1.0000 h1        1 MOL      0.088042
     75 H32         7.2680    3.3170    2.0270 h1        1 MOL      0.088042
     76 N7          4.3610    3.8820    0.9770 n         1 MOL     -0.203072
     77 C25         2.9460    4.2380    1.3070 c3        1 MOL     -0.027815
     78 C26         2.0820    2.9930    1.3770 c         1 MOL      0.495348
     79 O14         2.3990    2.0280    0.7100 o         1 MOL     -0.530893
     80 C27         2.3660    5.2380    0.2510 c3        1 MOL      0.126881
     81 C28         2.6130    6.6360    0.7060 c3        1 MOL     -0.227449
     82 C29         1.7920    7.6700    0.0680 c         1 MOL      0.704143
     83 N8          2.1450    8.1670   -1.1110 n         1 MOL     -0.859863
     84 O15         0.7870    8.0220    0.5400 o         1 MOL     -0.578676
     85 H33         4.4680    3.1010    0.3470 hn        1 MOL      0.207963
     86 H34         2.8220    4.6240    2.3110 h1        1 MOL      0.064559
     87 H35         1.2890    5.1210    0.0830 hc        1 MOL      0.005043
     88 H36         2.8350    4.9780   -0.6930 hc        1 MOL      0.005043
     89 H37         3.6600    6.9340    0.5970 hc        1 MOL      0.061733
     90 H38         2.3750    6.7300    1.7730 hc        1 MOL      0.061733
     91 H39         3.0610    7.9560   -1.4830 hn        1 MOL      0.367235
     92 H40         1.4860    8.8010   -1.5480 hn        1 MOL      0.367235
     93 N9          0.9480    3.1910    2.0850 n         1 MOL     -0.426622
     94 C30        -0.1200    2.2470    2.2170 c3        1 MOL     -0.040228
     95 C31        -1.3790    2.7460    1.5670 c         1 MOL      0.517063
     96 O16        -1.8330    3.8120    1.8910 o         1 MOL     -0.596046
     97 C32        -0.3240    1.9080    3.7150 c3        1 MOL      0.429837
     98 C33        -1.4670    0.9570    4.0370 c3        1 MOL     -0.360756
     99 C34         0.9340    1.4110    4.3850 c3        1 MOL     -0.360756
    100 H41         0.7390    4.0340    2.5910 hn        1 MOL      0.279269
    101 H42         0.2180    1.3730    1.6600 h1        1 MOL      0.087415
    102 H43        -0.4980    2.9020    4.1330 hc        1 MOL     -0.077789
    103 H44        -2.4070    1.3530    3.6470 hc        1 MOL      0.069238
    104 H45        -1.2000   -0.0230    3.6120 hc        1 MOL      0.069238
    105 H46        -1.6770    0.8210    5.0940 hc        1 MOL      0.069238
    106 H47         0.5880    1.2300    5.4120 hc        1 MOL      0.069238
    107 H48         1.3180    0.5330    3.8720 hc        1 MOL      0.069238
    108 H49         1.7300    2.1400    4.5410 hc        1 MOL      0.069238
    109 N10        -1.8600    2.0380    0.6160 n         1 MOL     -0.215989
    110 C35        -2.9530    2.3590   -0.2750 c3        1 MOL      0.010962
    111 C36        -4.2680    1.9290    0.2830 c         1 MOL      0.323802
    112 O17        -4.2900    0.9810    1.1320 o         1 MOL     -0.360048
    113 C37        -2.6640    1.7540   -1.6770 c3        1 MOL     -0.431437
    114 C38        -3.8430    1.9260   -2.6040 c         1 MOL      0.702274
    115 N11        -4.3900    3.0630   -2.9600 n         1 MOL     -0.841258
    116 O18        -4.3900    0.9250   -2.9740 o         1 MOL     -0.478012
    117 H50        -1.4080    1.1450    0.5320 hn        1 MOL      0.220929
    118 H51        -2.9650    3.4240   -0.5050 h1        1 MOL      0.075644
    119 H52        -2.4200    0.6940   -1.6690 hc        1 MOL      0.169422
    120 H53        -1.8190    2.3060   -2.0920 hc        1 MOL      0.169422
    121 H54        -4.0670    3.9260   -2.5620 hn        1 MOL      0.375857
    122 H55        -4.8340    2.9860   -3.8690 hn        1 MOL      0.375857
    123 N12        -5.3610    2.4780   -0.2240 n         1 MOL     -0.342600
    124 C39        -6.7090    1.9420    0.0430 c3        1 MOL      0.141583
    125 C40        -6.7580    0.4300    0.0960 c         1 MOL      0.487182
    126 O19        -7.3410   -0.1260    1.0190 o         1 MOL     -0.525557
    127 C41        -7.6730    2.5340   -0.9480 c3        1 MOL     -0.054894
    128 C42        -9.0710    2.0680   -0.7220 ca        1 MOL     -0.182179
    129 C43        -9.8220    2.5850    0.3460 ca        1 MOL      0.026089
    130 C44        -9.6970    1.0380   -1.4760 ca        1 MOL      0.026089
    131 C45       -11.1270    2.1130    0.6880 ca        1 MOL     -0.450162
    132 C46       -10.9560    0.6210   -1.1290 ca        1 MOL     -0.450162
    133 C47       -11.6770    1.0190    0.0370 ca        1 MOL      0.588870
    134 O20       -12.8480    0.4220    0.3710 oh        1 MOL     -0.604383
    135 H56        -5.3680    3.2440   -0.8900 hn        1 MOL      0.223017
    136 H57        -7.1280    2.3110    0.9750 h1        1 MOL      0.011359
    137 H58        -7.4310    2.3000   -1.9860 hc        1 MOL      0.045936
    138 H59        -7.6460    3.6100   -0.8450 hc        1 MOL      0.045936
    139 H60        -9.3780    3.3300    0.9970 ha        1 MOL      0.108461
    140 H61        -9.2290    0.5880   -2.3440 ha        1 MOL      0.108461
    141 H62       -11.6940    2.4340    1.5480 ha        1 MOL      0.161486
    142 H63       -11.4080   -0.1290   -1.7700 ha        1 MOL      0.161486
    143 H64       -13.4250    0.0290   -0.2910 ho        1 MOL      0.406420
    144 N13        -6.1990   -0.2390   -0.8700 n         1 MOL      0.135498
    145 C48        -6.2860   -1.7050   -0.9860 c3        1 MOL     -0.559120
    146 C49        -5.4350   -2.4340    0.1090 c         1 MOL      0.424417
    147 O21        -5.7560   -3.5100    0.5660 o         1 MOL     -0.490427
    148 C50        -5.7740   -2.1880   -2.4230 c3        1 MOL      0.469513
    149 C51        -6.7680   -1.8320   -3.5470 c3        1 MOL     -0.288663
    150 C52        -6.3780   -2.5440   -4.8390 c         1 MOL      0.676719
    151 O22        -7.2520   -3.3140   -5.3050 o         1 MOL     -0.723611
    152 O23        -5.2210   -2.5460   -5.2270 o         1 MOL     -0.723611
    153 H65        -5.8810    0.2320   -1.7140 hn        1 MOL      0.033776
    154 H66        -7.3070   -2.0810   -0.9150 h1        1 MOL      0.199902
    155 H67        -5.6570   -3.2710   -2.4480 hc        1 MOL     -0.039711
    156 H68        -4.7860   -1.8000   -2.6490 hc        1 MOL     -0.039711
    157 H69        -6.6770   -0.7560   -3.6930 hc        1 MOL      0.008535
    158 H70        -7.8090   -2.0350   -3.3080 hc        1 MOL      0.008535
    159 N14        -4.3010   -1.8430    0.5500 n         1 MOL     -0.318860
    160 C53        -3.4110   -2.5050    1.5170 c3        1 MOL      0.070485
    161 C54        -3.9540   -2.3230    2.9310 c         1 MOL      0.290973
    162 O24        -3.7690   -3.2020    3.8220 o         1 MOL     -0.564115
    163 C55        -1.9830   -1.8120    1.5150 c3        1 MOL      0.016428
    164 C56        -1.2540   -2.0930    0.2140 c3        1 MOL     -0.006615
    165 C57         0.1010   -1.4330    0.0820 c         1 MOL      0.861241
    166 O25         1.1840   -1.9710   -0.2310 o         1 MOL     -0.849853
    167 O26         0.1480   -0.1780    0.0320 o         1 MOL     -0.849853
    168 H71        -3.9970   -0.9560    0.1670 hn        1 MOL      0.247418
    169 H72        -3.3630   -3.5810    1.3360 h1        1 MOL      0.105894
    170 H73        -1.3110   -2.1600    2.3000 hc        1 MOL      0.041163
    171 H74        -2.0310   -0.7370    1.6860 hc        1 MOL      0.041163
    172 H75        -1.8240   -1.5720   -0.5580 hc        1 MOL     -0.042051
    173 H76        -1.2140   -3.1740    0.0530 hc        1 MOL     -0.042051
    174 N15        -4.6960   -1.2460    3.0680 n         1 MOL      0.166334
    175 C58        -5.5250   -0.8920    4.2140 c3        1 MOL     -0.234385
    176 H77        -4.8920   -0.5210    5.0200 h1        1 MOL      0.075625
    177 H78        -6.2350   -0.1170    3.9240 h1        1 MOL      0.075625
    178 H79        -6.0680   -1.7730    4.5560 h1        1 MOL      0.075625
    179 H80        -4.6900   -0.6410    2.2630 hn        1 MOL     -0.060268
    180 Ca1         2.3950    0.1650   -1.1950 Ca        1 MOL      1.781188
    181 O27         0.7910   -0.7170   -3.1860 oh        1 MOL     -0.817138
    182 H81         1.3360   -1.4820   -3.3930 ho        1 MOL      0.389152
    183 H82        -0.1060   -1.0730   -3.1620 ho        1 MOL      0.389152
    184 O28         1.2640    2.3300   -2.5000 oh        1 MOL     -0.817138
    185 H83         2.0270    2.8920   -2.4350 ho        1 MOL      0.389152
    186 H84         1.0000    2.3820   -3.4180 ho        1 MOL      0.389152
@<TRIPOS>BOND
     1    1    2 1   
     2    1    4 1   
     3    1    5 1   
     4    1    6 1   
     5    2    3 2   
     6    2    7 1   
     7    7    8 1   
     8    7   15 1   
     9    8    9 1   
    10    8   11 1   
    11    8   16 1   
    12    9   10 2   
    13    9   19 1   
    14   11   12 1   
    15   11   17 1   
    16   11   18 1   
    17   12   13 1   
    18   12   14 1   
    19   19   20 1   
    20   19   27 1   
    21   20   21 1   
    22   20   23 1   
    23   20   28 1   
    24   21   22 2   
    25   21   38 1   
    26   23   24 1   
    27   23   25 1   
    28   23   29 1   
    29   24   26 1   
    30   24   30 1   
    31   24   31 1   
    32   25   32 1   
    33   25   33 1   
    34   25   34 1   
    35   26   35 1   
    36   26   36 1   
    37   26   37 1   
    38   38   39 1   
    39   38   46 1   
    40   39   40 1   
    41   39   42 1   
    42   39   47 1   
    43   40   41 2   
    44   40   50 1   
    45   42   43 1   
    46   42   48 1   
    47   42   49 1   
    48   43   44 1   
    49   43   45 1   
    50   50   51 1   
    51   50   54 1   
    52   51   52 1   
    53   51   55 1   
    54   51   56 1   
    55   52   53 2   
    56   52   57 1   
    57   57   58 1   
    58   57   65 1   
    59   58   59 1   
    60   58   61 1   
    61   58   66 1   
    62   59   60 2   
    63   59   69 1   
    64   61   62 1   
    65   61   67 1   
    66   61   68 1   
    67   62   63 1   
    68   62   64 1   
    69   69   70 1   
    70   69   73 1   
    71   70   71 1   
    72   70   74 1   
    73   70   75 1   
    74   71   72 2   
    75   71   76 1   
    76   76   77 1   
    77   76   85 1   
    78   77   78 1   
    79   77   80 1   
    80   77   86 1   
    81   78   79 2   
    82   78   93 1   
    83   80   81 1   
    84   80   87 1   
    85   80   88 1   
    86   81   82 1   
    87   81   89 1   
    88   81   90 1   
    89   82   83 1   
    90   82   84 2   
    91   83   91 1   
    92   83   92 1   
    93   93   94 1   
    94   93  100 1   
    95   94   95 1   
    96   94   97 1   
    97   94  101 1   
    98   95   96 2   
    99   95  109 1   
   100   97   98 1   
   101   97   99 1   
   102   97  102 1   
   103   98  103 1   
   104   98  104 1   
   105   98  105 1   
   106   99  106 1   
   107   99  107 1   
   108   99  108 1   
   109  109  110 1   
   110  109  117 1   
   111  110  111 1   
   112  110  113 1   
   113  110  118 1   
   114  111  112 2   
   115  111  123 1   
   116  113  114 1   
   117  113  119 1   
   118  113  120 1   
   119  114  115 1   
   120  114  116 2   
   121  115  121 1   
   122  115  122 1   
   123  123  124 1   
   124  123  135 1   
   125  124  125 1   
   126  124  127 1   
   127  124  136 1   
   128  125  126 2   
   129  125  144 1   
   130  127  128 1   
   131  127  137 1   
   132  127  138 1   
   133  128  129 ar  
   134  128  130 ar  
   135  129  131 ar  
   136  129  139 1   
   137  130  132 ar  
   138  130  140 1   
   139  131  133 ar  
   140  131  141 1   
   141  132  133 ar  
   142  132  142 1   
   143  133  134 1   
   144  134  143 1   
   145  144  145 1   
   146  144  153 1   
   147  145  146 1   
   148  145  148 1   
   149  145  154 1   
   150  146  147 2   
   151  146  159 1   
   152  148  149 1   
   153  148  155 1   
   154  148  156 1   
   155  149  150 1   
   156  149  157 1   
   157  149  158 1   
   158  150  151 1   
   159  150  152 1   
   160  159  160 1   
   161  159  168 1   
   162  160  161 1   
   163  160  163 1   
   164  160  169 1   
   165  161  162 2   
   166  161  174 1   
   167  163  164 1   
   168  163  170 1   
   169  163  171 1   
   170  164  165 1   
   171  164  172 1   
   172  164  173 1   
   173  165  166 1   
   174  165  167 1   
   175  174  175 1   
   176  174  179 1   
   177  175  176 1   
   178  175  177 1   
   179  175  178 1   
   180  181  182 1   
   181  181  183 1   
   182  184  185 1   
   183  184  186 1   
@<TRIPOS>SUBSTRUCTURE
     1 MOL         1 TEMP              0 ****  ****    0 ROOT
