@<TRIPOS>MOLECULE
MOL
  179   176     1     0     0
SMALL
resp


@<TRIPOS>ATOM
      1 C1          2.3090    3.1040    4.5160 c3        1 MOL     -0.363826
      2 C2          1.4770    2.8590    3.2160 c         1 MOL      0.555002
      3 O1          2.1080    2.7090    2.1310 o         1 MOL     -0.557169
      4 H1          3.0060    3.9250    4.3510 hc        1 MOL      0.097892
      5 H2          1.6360    3.3590    5.3350 hc        1 MOL      0.097892
      6 H3          2.8640    2.2010    4.7680 hc        1 MOL      0.097892
      7 N1          0.1600    2.8290    3.2780 n         1 MOL     -0.550898
      8 C3         -0.6470    2.7280    2.1090 c3        1 MOL     -0.222559
      9 C4         -1.1420    4.1030    1.5720 c         1 MOL      0.778723
     10 O2         -2.2430    4.5770    1.9170 o         1 MOL     -0.506783
     11 C5         -1.7920    1.8000    2.5770 c3        1 MOL      0.018505
     12 C6         -2.7720    1.4930    1.4170 c         1 MOL      0.608118
     13 O3         -3.9350    1.3350    1.7360 o         1 MOL     -0.629888
     14 O4         -2.3150    1.4810    0.2770 o         1 MOL     -0.629888
     15 H4         -0.3360    2.8620    4.1670 hn        1 MOL      0.375274
     16 H5         -0.1370    2.1760    1.3240 h1        1 MOL      0.082407
     17 H6         -2.3030    2.3580    3.3710 hc        1 MOL      0.014039
     18 H7         -1.5600    0.8670    3.0970 hc        1 MOL      0.014039
     19 N2         -0.3760    4.8510    0.6930 n         1 MOL     -0.596293
     20 C7         -0.6070    6.1870    0.2770 c3        1 MOL     -0.043721
     21 C8         -1.7460    6.1710   -0.7890 c         1 MOL      0.516654
     22 O5         -2.5510    7.0830   -0.8270 o         1 MOL     -0.525268
     23 C9          0.6790    6.8640   -0.3270 c3        1 MOL     -0.275447
     24 C10         1.8700    6.8380    0.6720 c3        1 MOL      0.389926
     25 C11         2.8650    8.0060    0.5070 c3        1 MOL     -0.174824
     26 C12         4.1420    7.7920    1.3970 c3        1 MOL     -0.043628
     27 N3          3.8640    7.6660    2.8020 n4        1 MOL     -0.348402
     28 H8          0.4960    4.3990    0.4490 hn        1 MOL      0.337907
     29 H9         -0.9420    6.8180    1.1090 h1        1 MOL      0.093100
     30 H10         0.2980    7.8470   -0.5910 hc        1 MOL      0.099495
     31 H11         0.8980    6.4140   -1.2930 hc        1 MOL      0.099495
     32 H12         2.3930    5.8910    0.6040 hc        1 MOL     -0.050530
     33 H13         1.5120    6.9850    1.6920 hc        1 MOL     -0.050530
     34 H14         2.3630    8.9340    0.7870 hc        1 MOL      0.059218
     35 H15         3.1710    8.0720   -0.5320 hc        1 MOL      0.059218
     36 H16         4.7340    8.7120    1.3650 hx        1 MOL      0.118291
     37 H17         4.7240    6.9490    1.0470 hx        1 MOL      0.118291
     38 H18         4.7390    7.7760    3.2880 hn        1 MOL      0.330818
     39 H19         3.2330    8.4080    3.0770 hn        1 MOL      0.330818
     40 H20         3.4890    6.7530    3.0080 hn        1 MOL      0.330818
     41 N4         -1.8020    5.0670   -1.5350 n         1 MOL     -0.331057
     42 C13        -2.9140    4.9680   -2.5170 c3        1 MOL     -0.012514
     43 C14        -4.2020    4.5570   -1.8690 c         1 MOL      0.424310
     44 O6         -5.2930    4.8120   -2.4150 o         1 MOL     -0.551395
     45 C15        -2.5430    3.9540   -3.6250 c3        1 MOL      0.010535
     46 C16        -2.2880    2.5780   -3.0810 c         1 MOL      0.581072
     47 O7         -1.0700    2.2830   -2.8370 o         1 MOL     -0.713532
     48 O8         -3.2020    1.7450   -2.8230 o         1 MOL     -0.713532
     49 H21        -1.2530    4.2410   -1.3820 hn        1 MOL      0.241354
     50 H22        -3.0940    5.8600   -3.1040 h1        1 MOL      0.091860
     51 H23        -1.6310    4.3210   -4.0890 hc        1 MOL      0.015774
     52 H24        -3.3170    3.9500   -4.3950 hc        1 MOL      0.015774
     53 N5         -4.1300    3.8760   -0.7220 n         1 MOL      0.113436
     54 C17        -5.3410    3.6910    0.1220 c3        1 MOL     -0.300894
     55 C18        -6.2180    2.3830   -0.0410 c         1 MOL      0.626185
     56 O9         -7.2930    2.3820    0.5490 o         1 MOL     -0.581282
     57 H25        -3.2600    3.5710   -0.3190 hn        1 MOL     -0.037910
     58 H26        -6.0100    4.5340   -0.0850 h1        1 MOL      0.125215
     59 H27        -4.9890    3.6760    1.1530 h1        1 MOL      0.125215
     60 N6         -5.7760    1.3330   -0.7400 n         1 MOL     -0.339154
     61 C19        -6.6150    0.1930   -1.0850 c3        1 MOL      0.061014
     62 C20        -6.6510   -0.8120    0.0720 c         1 MOL      0.357364
     63 O10        -7.3410   -1.8230   -0.0550 o         1 MOL     -0.534398
     64 C21        -6.1540   -0.3740   -2.4160 c3        1 MOL     -0.296707
     65 C22        -4.7520   -1.1250   -2.5040 c         1 MOL      0.739518
     66 N7         -4.5260   -1.6870   -3.6100 n         1 MOL     -0.789149
     67 O11        -4.0130   -1.1100   -1.5580 o         1 MOL     -0.619753
     68 H28        -4.8360    1.3610   -1.0940 hn        1 MOL      0.147032
     69 H29        -7.6490    0.5150   -1.1960 h1        1 MOL      0.111157
     70 H30        -6.1470    0.4350   -3.1480 hc        1 MOL      0.100757
     71 H31        -6.8960   -1.1280   -2.6800 hc        1 MOL      0.100757
     72 H32        -5.2360   -1.7430   -4.3280 hn        1 MOL      0.374678
     73 H33        -3.8190   -2.4170   -3.6080 hn        1 MOL      0.374678
     74 N8         -5.9090   -0.6450    1.1550 n         1 MOL     -0.024145
     75 C23        -5.9610   -1.5430    2.2710 c3        1 MOL     -0.477880
     76 C24        -4.8820   -2.6580    2.2900 c         1 MOL      0.599076
     77 O12        -4.9850   -3.5580    3.1100 o         1 MOL     -0.546680
     78 H34        -5.2360    0.1010    1.2500 hn        1 MOL      0.236459
     79 H35        -6.8940   -2.0800    2.1050 h1        1 MOL      0.171511
     80 H36        -5.9710   -0.9610    3.1950 h1        1 MOL      0.171511
     81 N9         -3.9170   -2.5040    1.4870 n         1 MOL     -0.307830
     82 C25        -2.7850   -3.3830    1.4600 c3        1 MOL      0.210672
     83 C26        -1.4880   -2.6110    1.0710 c         1 MOL      0.354459
     84 O13        -1.5150   -1.5230    0.4690 o         1 MOL     -0.549695
     85 C27        -3.0330   -4.4560    0.3290 c3        1 MOL      0.160061
     86 C28        -4.3130   -5.3820    0.4470 ca        1 MOL     -0.136483
     87 C29        -4.2730   -6.6470    1.0290 ca        1 MOL     -0.077096
     88 C30        -5.4940   -4.8620   -0.1310 ca        1 MOL     -0.077096
     89 C31        -5.4880   -7.3190    1.1380 ca        1 MOL     -0.248352
     90 C32        -6.7690   -5.5460   -0.0770 ca        1 MOL     -0.248352
     91 C33        -6.7310   -6.7800    0.6550 ca        1 MOL      0.280357
     92 O14        -7.8980   -7.3600    1.1310 oh        1 MOL     -0.500587
     93 H37        -4.0420   -1.7480    0.8270 hn        1 MOL      0.193178
     94 H38        -2.6330   -3.9110    2.4010 h1        1 MOL      0.001588
     95 H39        -2.1630   -5.1130    0.2340 hc        1 MOL     -0.037473
     96 H40        -3.0630   -3.9730   -0.6500 hc        1 MOL     -0.037473
     97 H41        -3.3470   -7.0760    1.3750 ha        1 MOL      0.115524
     98 H42        -5.3510   -3.9870   -0.7600 ha        1 MOL      0.115524
     99 H43        -5.4740   -8.2380    1.6920 ha        1 MOL      0.148314
    100 H44        -7.6970   -5.2640   -0.5510 ha        1 MOL      0.148314
    101 H45        -8.6640   -6.8530    0.8560 ho        1 MOL      0.389489
    102 N10        -0.3560   -3.2690    1.4520 n         1 MOL     -0.331172
    103 C34         0.9780   -2.7320    1.1470 c3        1 MOL     -0.045472
    104 C35         1.9640   -3.8320    0.5970 c         1 MOL      0.339336
    105 O15         2.0400   -4.9100    1.2540 o         1 MOL     -0.523650
    106 C36         1.6210   -1.9760    2.2330 c3        1 MOL     -0.071219
    107 C37         1.8570   -2.7130    3.6240 c3        1 MOL      0.183961
    108 C38         0.9970   -0.6390    2.4610 c3        1 MOL     -0.604751
    109 C39         2.4390   -1.9420    4.7470 c3        1 MOL     -0.308438
    110 H46        -0.4050   -4.0810    2.0620 hn        1 MOL      0.288624
    111 H47         0.8380   -2.0170    0.3310 h1        1 MOL     -0.022037
    112 H48         2.6040   -1.6850    1.8750 hc        1 MOL     -0.026678
    113 H49         2.4580   -3.6170    3.5890 hc        1 MOL      0.018513
    114 H50         0.9200   -3.1680    3.9290 hc        1 MOL      0.018513
    115 H51         0.7900   -0.2060    1.4770 hc        1 MOL      0.218470
    116 H52         0.1250   -0.7760    3.0930 hc        1 MOL      0.218470
    117 H53         1.7100    0.0270    2.9600 hc        1 MOL      0.218470
    118 H54         3.3210   -1.3730    4.4320 hc        1 MOL      0.069852
    119 H55         1.7200   -1.1590    5.0020 hc        1 MOL      0.069852
    120 H56         2.6730   -2.6070    5.5790 hc        1 MOL      0.069852
    121 N11         2.8370   -3.3910   -0.2790 n         1 MOL     -0.122981
    122 C40         3.9940   -4.2060   -0.7840 c3        1 MOL     -0.096328
    123 C41         5.3300   -3.6830   -0.2020 c         1 MOL      0.550805
    124 O16         5.3390   -2.7930    0.5990 o         1 MOL     -0.455568
    125 C42         3.8150   -4.2680   -2.3360 c3        1 MOL      0.139539
    126 O17         3.9350   -2.9920   -2.8840 oh        1 MOL     -0.645647
    127 H57         2.6800   -2.5310   -0.7810 hn        1 MOL      0.307002
    128 H58         3.8470   -5.2470   -0.5040 h1        1 MOL      0.057146
    129 H59         2.8290   -4.6830   -2.5540 h1        1 MOL      0.041843
    130 H60         4.5870   -4.9150   -2.7370 h1        1 MOL      0.041843
    131 H61         3.2670   -2.3720   -2.5960 ho        1 MOL      0.411494
    132 N12         6.4770   -4.2710   -0.5870 n         1 MOL     -0.493377
    133 C43         7.9010   -3.9820   -0.1060 c3        1 MOL      0.125440
    134 C44         8.4210   -2.6390   -0.6060 c         1 MOL      0.469522
    135 O18         9.1810   -1.9820    0.0860 o         1 MOL     -0.546739
    136 C45         8.8130   -5.0900   -0.5540 c3        1 MOL     -0.113349
    137 H62         6.3500   -5.0050   -1.2700 hn        1 MOL      0.265119
    138 H63         7.9670   -3.9520    0.9840 h1        1 MOL      0.074722
    139 H64         9.0800   -4.9220   -1.5930 hc        1 MOL      0.044332
    140 H65         9.7540   -5.1010   -0.0030 hc        1 MOL      0.044332
    141 H66         8.4400   -6.1010   -0.3760 hc        1 MOL      0.044332
    142 N13         7.9970   -2.2620   -1.7790 n         1 MOL     -0.384041
    143 C46         8.2530   -0.8880   -2.3580 c3        1 MOL      0.115053
    144 C47         7.3630    0.1630   -1.5720 c         1 MOL      0.311249
    145 O19         7.7370    1.3050   -1.5370 o         1 MOL     -0.489982
    146 C48         7.8680   -0.8890   -3.7850 c3        1 MOL     -0.201379
    147 H67         7.3920   -2.8760   -2.3010 hn        1 MOL      0.269519
    148 H68         9.2870   -0.5430   -2.3340 h1        1 MOL      0.096547
    149 H69         6.7980   -0.8110   -3.9430 hc        1 MOL      0.058660
    150 H70         8.3840   -0.0480   -4.2560 hc        1 MOL      0.058660
    151 H71         8.2540   -1.7730   -4.2970 hc        1 MOL      0.058660
    152 N14         6.1730   -0.2160   -1.0950 n         1 MOL      0.031663
    153 C49         5.2820    0.7410   -0.4020 c3        1 MOL     -0.090503
    154 C50         5.8750    0.9870    0.9780 c         1 MOL      0.372133
    155 O20         5.9450    2.1660    1.3740 o         1 MOL     -0.547185
    156 C51         3.8010    0.2990   -0.3660 c3        1 MOL      0.019303
    157 C52         3.2270    0.3780   -1.7220 c3        1 MOL     -0.166708
    158 C53         1.8850   -0.3690   -1.7340 c         1 MOL      0.859271
    159 O21         1.9150   -1.5730   -2.0230 o         1 MOL     -0.759248
    160 O22         0.8290    0.2220   -1.4840 o         1 MOL     -0.759248
    161 H72         5.7610   -1.1200   -1.2660 hn        1 MOL      0.057164
    162 H73         5.3700    1.6650   -0.9680 h1        1 MOL      0.089903
    163 H74         3.3400    1.0180    0.2990 hc        1 MOL      0.087352
    164 H75         3.5870   -0.6980    0.0280 hc        1 MOL      0.087352
    165 H76         3.9160   -0.0340   -2.4680 hc        1 MOL      0.020825
    166 H77         3.0340    1.4040   -2.0480 hc        1 MOL      0.020825
    167 N15         6.3510   -0.0060    1.7080 n         1 MOL     -0.043618
    168 C54         7.1270    0.2770    2.9300 c3        1 MOL     -0.300100
    169 H78         7.8190    1.0960    2.7380 h1        1 MOL      0.117337
    170 H79         6.4480    0.5570    3.7360 h1        1 MOL      0.117337
    171 H80         7.6880   -0.6120    3.2190 h1        1 MOL      0.117337
    172 H81         6.1580   -0.9450    1.4060 hn        1 MOL      0.128941
    173 Ca1        -1.6380    0.0010   -1.6840 Ca        1 MOL      1.744858
    174 O23        -0.6190   -2.4110   -2.0130 oh        1 MOL     -0.836239
    175 H82         0.2990   -2.1650   -1.9700 ho        1 MOL      0.413271
    176 H83        -0.6100   -3.3610   -2.1410 ho        1 MOL      0.413271
    177 O24        -0.6460   -0.6040   -4.1950 oh        1 MOL     -0.836239
    178 H84         0.1080   -0.0580   -4.4350 ho        1 MOL      0.413271
    179 H85        -1.0320   -0.8720   -5.0240 ho        1 MOL      0.413271
@<TRIPOS>BOND
     1    1    2 1   
     2    1    4 1   
     3    1    5 1   
     4    1    6 1   
     5    2    3 2   
     6    2    7 1   
     7    7    8 1   
     8    7   15 1   
     9    8    9 1   
    10    8   11 1   
    11    8   16 1   
    12    9   10 2   
    13    9   19 1   
    14   11   12 1   
    15   11   17 1   
    16   11   18 1   
    17   12   13 1   
    18   12   14 1   
    19   19   20 1   
    20   19   28 1   
    21   20   21 1   
    22   20   23 1   
    23   20   29 1   
    24   21   22 2   
    25   21   41 1   
    26   23   24 1   
    27   23   30 1   
    28   23   31 1   
    29   24   25 1   
    30   24   32 1   
    31   24   33 1   
    32   25   26 1   
    33   25   34 1   
    34   25   35 1   
    35   26   27 1   
    36   26   36 1   
    37   26   37 1   
    38   27   38 1   
    39   27   39 1   
    40   27   40 1   
    41   41   42 1   
    42   41   49 1   
    43   42   43 1   
    44   42   45 1   
    45   42   50 1   
    46   43   44 2   
    47   43   53 1   
    48   45   46 1   
    49   45   51 1   
    50   45   52 1   
    51   46   47 1   
    52   46   48 1   
    53   53   54 1   
    54   53   57 1   
    55   54   55 1   
    56   54   58 1   
    57   54   59 1   
    58   55   56 2   
    59   55   60 1   
    60   60   61 1   
    61   60   68 1   
    62   61   62 1   
    63   61   64 1   
    64   61   69 1   
    65   62   63 2   
    66   62   74 1   
    67   64   65 1   
    68   64   70 1   
    69   64   71 1   
    70   65   66 1   
    71   65   67 2   
    72   66   72 1   
    73   66   73 1   
    74   74   75 1   
    75   74   78 1   
    76   75   76 1   
    77   75   79 1   
    78   75   80 1   
    79   76   77 2   
    80   76   81 1   
    81   81   82 1   
    82   81   93 1   
    83   82   83 1   
    84   82   85 1   
    85   82   94 1   
    86   83   84 2   
    87   83  102 1   
    88   85   86 1   
    89   85   95 1   
    90   85   96 1   
    91   86   87 ar  
    92   86   88 ar  
    93   87   89 ar  
    94   87   97 1   
    95   88   90 ar  
    96   88   98 1   
    97   89   91 ar  
    98   89   99 1   
    99   90   91 ar  
   100   90  100 1   
   101   91   92 1   
   102   92  101 1   
   103  102  103 1   
   104  102  110 1   
   105  103  104 1   
   106  103  106 1   
   107  103  111 1   
   108  104  105 2   
   109  104  121 1   
   110  106  107 1   
   111  106  108 1   
   112  106  112 1   
   113  107  109 1   
   114  107  113 1   
   115  107  114 1   
   116  108  115 1   
   117  108  116 1   
   118  108  117 1   
   119  109  118 1   
   120  109  119 1   
   121  109  120 1   
   122  121  122 1   
   123  121  127 1   
   124  122  123 1   
   125  122  125 1   
   126  122  128 1   
   127  123  124 2   
   128  123  132 1   
   129  125  126 1   
   130  125  129 1   
   131  125  130 1   
   132  126  131 1   
   133  132  133 1   
   134  132  137 1   
   135  133  134 1   
   136  133  136 1   
   137  133  138 1   
   138  134  135 2   
   139  134  142 1   
   140  136  139 1   
   141  136  140 1   
   142  136  141 1   
   143  142  143 1   
   144  142  147 1   
   145  143  144 1   
   146  143  146 1   
   147  143  148 1   
   148  144  145 2   
   149  144  152 1   
   150  146  149 1   
   151  146  150 1   
   152  146  151 1   
   153  152  153 1   
   154  152  161 1   
   155  153  154 1   
   156  153  156 1   
   157  153  162 1   
   158  154  155 2   
   159  154  167 1   
   160  156  157 1   
   161  156  163 1   
   162  156  164 1   
   163  157  158 1   
   164  157  165 1   
   165  157  166 1   
   166  158  159 1   
   167  158  160 1   
   168  167  168 1   
   169  167  172 1   
   170  168  169 1   
   171  168  170 1   
   172  168  171 1   
   173  174  175 1   
   174  174  176 1   
   175  177  178 1   
   176  177  179 1   
@<TRIPOS>SUBSTRUCTURE
     1 MOL         1 TEMP              0 ****  ****    0 ROOT
