@<TRIPOS>MOLECULE
MOL
  175   173     1     0     0
SMALL
resp


@<TRIPOS>ATOM
      1 C1          0.3270   -4.0120    5.7840 c3        1 MOL     -0.351548
      2 C2          0.8170   -3.8690    4.3370 c         1 MOL      0.727688
      3 O1          0.0240   -3.9140    3.4390 o         1 MOL     -0.575629
      4 H1          0.4670   -5.0410    6.1140 hc        1 MOL      0.080043
      5 H2          0.8970   -3.3430    6.4290 hc        1 MOL      0.080043
      6 H3         -0.7310   -3.7560    5.8370 hc        1 MOL      0.080043
      7 N1          2.0730   -3.5440    4.0460 n         1 MOL     -0.581833
      8 C3          2.6900   -3.3760    2.7700 c3        1 MOL      0.179660
      9 C4          2.9440   -4.6220    1.9560 c         1 MOL      0.547744
     10 O2          3.4810   -5.5650    2.5100 o         1 MOL     -0.557619
     11 C5          4.0410   -2.6480    2.9590 c3        1 MOL     -0.291307
     12 C6          4.7130   -2.4320    1.6390 c         1 MOL      0.826042
     13 O3          4.0740   -1.7890    0.7540 o         1 MOL     -0.712212
     14 O4          5.9280   -2.7060    1.4780 o         1 MOL     -0.712212
     15 H4          2.6280   -3.4630    4.8830 hn        1 MOL      0.288697
     16 H5          1.9970   -2.7700    2.1770 h1        1 MOL      0.014042
     17 H6          4.6280   -3.2880    3.6230 hc        1 MOL      0.039557
     18 H7          3.7980   -1.6930    3.4250 hc        1 MOL      0.039557
     19 N2          2.6610   -4.4700    0.6370 n         1 MOL     -0.561296
     20 C7          2.9530   -5.4660   -0.4030 c3        1 MOL      0.645163
     21 C8          4.0260   -5.0570   -1.4600 c         1 MOL      0.243221
     22 O5          4.3900   -5.9160   -2.3150 o         1 MOL     -0.560303
     23 C9          1.6570   -5.9700   -0.9990 c3        1 MOL     -0.441844
     24 H8          2.2120   -3.6420    0.2790 hn        1 MOL      0.318523
     25 H9          3.4180   -6.2700    0.1640 h1        1 MOL     -0.065236
     26 H10         0.8220   -5.8350   -0.3090 hc        1 MOL      0.094108
     27 H11         1.5980   -5.3180   -1.8650 hc        1 MOL      0.094108
     28 H12         1.7840   -7.0280   -1.2370 hc        1 MOL      0.094108
     29 N3          4.5170   -3.7610   -1.4960 n         1 MOL     -0.080920
     30 C10         5.2820   -3.2230   -2.6340 c3        1 MOL      0.255533
     31 C11         6.5550   -2.4660   -2.1700 c         1 MOL      0.248713
     32 O6          7.6280   -2.7630   -2.7450 o         1 MOL     -0.554866
     33 C12         4.3440   -2.3170   -3.4590 c3        1 MOL     -0.213810
     34 C13         3.5480   -1.2450   -2.6430 c         1 MOL      0.654827
     35 O7          2.3310   -1.4820   -2.3890 o         1 MOL     -0.714865
     36 O8          4.1210   -0.4160   -1.9470 o         1 MOL     -0.714865
     37 H13         4.3330   -3.1630   -0.7050 hn        1 MOL     -0.050774
     38 H14         5.6430   -4.0190   -3.2860 h1        1 MOL      0.035727
     39 H15         3.5810   -2.9180   -3.9620 hc        1 MOL      0.037347
     40 H16         4.9850   -1.8520   -4.2050 hc        1 MOL      0.037347
     41 N4          6.5240   -1.7070   -1.0710 n         1 MOL     -0.035699
     42 C14         7.5610   -0.8490   -0.5030 c3        1 MOL     -0.145282
     43 C15         7.4730    0.6190   -0.9420 c         1 MOL      0.362871
     44 O9          8.4920    1.3220   -0.9940 o         1 MOL     -0.573511
     45 H17         5.5720   -1.5180   -0.7940 hn        1 MOL      0.225394
     46 H18         8.5160   -1.2740   -0.8170 h1        1 MOL      0.107208
     47 H19         7.5340   -0.9240    0.5790 h1        1 MOL      0.107208
     48 N5          6.3120    1.1310   -1.3890 n         1 MOL      0.000063
     49 C16         6.1500    2.3970   -2.1270 c3        1 MOL     -0.211486
     50 C17         6.0510    3.5570   -1.1950 c         1 MOL      0.529645
     51 O10         6.5110    4.6150   -1.6020 o         1 MOL     -0.587574
     52 C18         4.8950    2.3890   -3.0730 c3        1 MOL      0.042568
     53 C19         3.4830    2.2400   -2.4920 c         1 MOL      0.370396
     54 N6          2.4770    2.0740   -3.3540 n         1 MOL     -0.670603
     55 O11         3.3000    2.1520   -1.2820 o         1 MOL     -0.124186
     56 H20         5.5060    0.5260   -1.3900 hn        1 MOL      0.068280
     57 H21         7.0650    2.5360   -2.7010 h1        1 MOL      0.138955
     58 H22         5.0780    1.6860   -3.8880 hc        1 MOL      0.021295
     59 H23         4.8660    3.3070   -3.6680 hc        1 MOL      0.021295
     60 H24         2.6680    2.0910   -4.3470 hn        1 MOL      0.333872
     61 H25         1.5300    1.8420   -3.0870 hn        1 MOL      0.333872
     62 N7          5.5760    3.3850    0.0130 n         1 MOL     -0.191688
     63 C20         5.6090    4.4400    1.0520 c3        1 MOL     -0.101866
     64 C21         4.2140    4.9110    1.4000 c         1 MOL      0.542005
     65 O12         4.1180    5.8930    2.0470 o         1 MOL     -0.566495
     66 H26         5.3440    2.4370    0.2770 hn        1 MOL      0.147154
     67 H27         6.2040    5.2950    0.7210 h1        1 MOL      0.078104
     68 H28         6.0430    4.0940    1.9860 h1        1 MOL      0.078104
     69 N8          3.1820    4.2310    0.8040 n         1 MOL     -0.135275
     70 C22         1.7910    4.6850    0.9830 c3        1 MOL     -0.232846
     71 C23         0.8510    3.5750    1.3090 c         1 MOL      0.508229
     72 O13         1.0670    2.4070    0.9680 o         1 MOL     -0.466904
     73 C24         1.3980    5.5850   -0.2600 c3        1 MOL      0.600033
     74 C25         2.1360    6.9330   -0.2730 c3        1 MOL     -0.659682
     75 O14         1.6450    4.8710   -1.4610 oh        1 MOL     -0.594012
     76 H29         3.3180    3.4230    0.2080 hn        1 MOL     -0.116370
     77 H30         1.7960    5.3520    1.8480 h1        1 MOL      0.091228
     78 H31         0.3130    5.7120   -0.2350 h1        1 MOL     -0.072843
     79 H32         1.2370    4.0200   -1.3170 ho        1 MOL      0.326230
     80 H33         1.8800    7.3140    0.7110 hc        1 MOL      0.175510
     81 H34         3.2100    6.9090   -0.4530 hc        1 MOL      0.175510
     82 H35         1.6460    7.4340   -1.1090 hc        1 MOL      0.175510
     83 N9         -0.2460    3.9320    1.9820 n         1 MOL     -0.425291
     84 C26        -1.4170    3.0580    1.9580 c3        1 MOL     -0.214108
     85 C27        -2.1360    3.0520    0.5820 c         1 MOL      0.616986
     86 O15        -2.6550    4.0780    0.0830 o         1 MOL     -0.596174
     87 C28        -2.4240    3.5440    3.0440 c3        1 MOL      0.147116
     88 C29        -1.9320    3.6030    4.4810 c3        1 MOL     -0.026309
     89 C30        -3.7090    2.6240    3.0120 c3        1 MOL     -0.184843
     90 C31        -2.7070    4.6940    5.2940 c3        1 MOL     -0.000777
     91 H36        -0.3320    4.8630    2.3600 hn        1 MOL      0.290060
     92 H37        -1.1310    2.0590    2.3000 h1        1 MOL      0.160317
     93 H38        -2.7960    4.5550    2.8670 hc        1 MOL     -0.011545
     94 H39        -0.8730    3.8350    4.6110 hc        1 MOL      0.008417
     95 H40        -2.1770    2.6320    4.9210 hc        1 MOL      0.008417
     96 H41        -3.4680    1.5860    3.2510 hc        1 MOL      0.036507
     97 H42        -4.3240    3.0370    3.8090 hc        1 MOL      0.036507
     98 H43        -4.2360    2.6410    2.0610 hc        1 MOL      0.036507
     99 H44        -2.7730    5.6800    4.8230 hc        1 MOL     -0.002941
    100 H45        -3.7280    4.4420    5.5910 hc        1 MOL     -0.002941
    101 H46        -2.1270    4.9040    6.1960 hc        1 MOL     -0.002941
    102 N10        -2.1070    1.8890   -0.0300 n         1 MOL      0.003615
    103 C32        -2.8640    1.6250   -1.2530 c3        1 MOL     -0.014518
    104 C33        -4.2720    1.1070   -0.9610 c         1 MOL      0.369907
    105 O16        -4.5250    0.6180    0.1780 o         1 MOL     -0.292384
    106 C34        -2.0620    0.6430   -2.1710 c3        1 MOL     -0.170544
    107 C35        -0.6870    1.1120   -2.5410 c         1 MOL      0.683669
    108 O17         0.2380    0.8250   -1.7520 o         1 MOL     -0.663199
    109 O18        -0.5390    1.7170   -3.6460 o         1 MOL     -0.663199
    110 H47        -1.5120    1.1380    0.2810 hn        1 MOL     -0.150750
    111 H48        -2.9980    2.5680   -1.7860 h1        1 MOL      0.057940
    112 H49        -2.6720    0.4280   -3.0520 hc        1 MOL      0.048636
    113 H50        -2.0160   -0.2720   -1.5800 hc        1 MOL      0.048636
    114 N11        -5.1740    1.1830   -1.9040 n         1 MOL     -0.568639
    115 C36        -6.5320    0.7280   -1.6750 c3        1 MOL      0.449032
    116 C37        -6.6500   -0.7350   -1.2780 c         1 MOL      0.288195
    117 O19        -7.3050   -0.9470   -0.3020 o         1 MOL     -0.498598
    118 C38        -7.5370    1.0450   -2.7700 c3        1 MOL     -0.304848
    119 C39        -8.9970    1.0060   -2.3430 ca        1 MOL      0.068468
    120 C40        -9.6840    2.1530   -1.8720 ca        1 MOL     -0.101224
    121 C41        -9.7670   -0.1540   -2.6990 ca        1 MOL     -0.101224
    122 C42       -11.0570    2.0750   -1.5110 ca        1 MOL     -0.186724
    123 C43       -11.1360   -0.2040   -2.3290 ca        1 MOL     -0.186724
    124 C44       -11.7700    0.8330   -1.6470 ca        1 MOL     -0.024500
    125 H51        -4.9640    1.5760   -2.8010 hn        1 MOL      0.337665
    126 H52        -6.8440    1.3340   -0.8320 h1        1 MOL      0.021774
    127 H53        -7.5250    0.3990   -3.6510 hc        1 MOL      0.077163
    128 H54        -7.2180    1.9210   -3.3220 hc        1 MOL      0.077163
    129 H55        -9.1730    3.1080   -1.9060 ha        1 MOL      0.109154
    130 H56        -9.4080   -0.9750   -3.3160 ha        1 MOL      0.109154
    131 H57       -11.4720    3.0010   -1.1490 ha        1 MOL      0.124619
    132 H58       -11.6440   -1.0840   -2.6890 ha        1 MOL      0.124619
    133 H59       -12.8200    0.7450   -1.4310 ha        1 MOL      0.085242
    134 N12        -5.9680   -1.7210   -1.8860 n         1 MOL     -0.027298
    135 C45        -5.9190   -3.0490   -1.3390 c3        1 MOL     -0.041159
    136 C46        -5.2610   -3.1910    0.0730 c         1 MOL      0.271428
    137 O20        -5.2710   -4.2420    0.6720 o         1 MOL     -0.504207
    138 C47        -5.4440   -3.9440   -2.4830 c3        1 MOL     -0.030670
    139 C48        -5.5820   -3.1360   -3.7110 c3        1 MOL     -0.041706
    140 C49        -5.2740   -1.6990   -3.1780 c3        1 MOL     -0.175905
    141 H60        -6.9680   -3.3010   -1.1750 h1        1 MOL      0.091988
    142 H61        -4.3660   -4.0600   -2.3310 hc        1 MOL      0.051903
    143 H62        -5.9250   -4.9110   -2.6020 hc        1 MOL      0.051903
    144 H63        -4.8270   -3.4470   -4.4210 hc        1 MOL      0.034002
    145 H64        -6.5730   -3.2460   -4.1420 hc        1 MOL      0.034002
    146 H65        -4.1890   -1.6340   -3.0110 h1        1 MOL      0.092508
    147 H66        -5.5840   -0.9230   -3.8760 h1        1 MOL      0.092508
    148 N13        -4.5540   -2.1770    0.5960 n         1 MOL      0.038984
    149 C50        -3.9550   -2.1810    1.9620 c3        1 MOL     -0.123330
    150 C51        -4.9050   -1.5350    3.0560 c         1 MOL      0.467338
    151 O21        -4.9760   -1.8870    4.1960 o         1 MOL     -0.552073
    152 C52        -2.5480   -1.5900    1.8940 c3        1 MOL      0.085667
    153 C53        -1.4920   -2.2190    0.9800 c3        1 MOL     -0.279626
    154 C54        -0.1350   -1.5040    0.8980 c         1 MOL      0.789643
    155 O22         0.7680   -2.0680    0.2350 o         1 MOL     -0.726144
    156 O23         0.0140   -0.3760    1.4240 o         1 MOL     -0.726144
    157 H67        -4.4790   -1.3320    0.0520 hn        1 MOL      0.056265
    158 H68        -3.7830   -3.2070    2.2830 h1        1 MOL      0.109621
    159 H69        -2.1810   -1.5110    2.9170 hc        1 MOL      0.026049
    160 H70        -2.6030   -0.5750    1.5020 hc        1 MOL      0.026049
    161 H71        -1.8930   -2.1780   -0.0400 hc        1 MOL      0.088931
    162 H72        -1.2980   -3.2580    1.2230 hc        1 MOL      0.088931
    163 N14        -5.7010   -0.5430    2.6660 n         1 MOL     -0.149987
    164 C55        -6.7910    0.1500    3.4910 c3        1 MOL     -0.125966
    165 H73        -6.8390   -0.3030    4.4800 h1        1 MOL      0.067975
    166 H74        -6.5550    1.2100    3.5890 h1        1 MOL      0.067975
    167 H75        -7.7530    0.0350    2.9910 h1        1 MOL      0.067975
    168 H76        -5.6140   -0.1910    1.7190 hn        1 MOL      0.089589
    169 Ca1         2.0610    0.0470   -0.2170 Ca        1 MOL      1.670634
    170 O24         4.2220    1.0540    1.4040 oh        1 MOL     -0.758032
    171 H77         4.9350    0.6840    1.9120 ho        1 MOL      0.383237
    172 H78         3.5220    1.2150    2.0440 ho        1 MOL      0.383237
    173 O25         2.0610    0.5980    2.8990 oh        1 MOL     -0.758032
    174 H79         2.0740    0.7210    3.8520 ho        1 MOL      0.383237
    175 H80         1.2030    0.2170    2.7200 ho        1 MOL      0.383237
@<TRIPOS>BOND
     1    1    2 1   
     2    1    4 1   
     3    1    5 1   
     4    1    6 1   
     5    2    3 2   
     6    2    7 1   
     7    7    8 1   
     8    7   15 1   
     9    8    9 1   
    10    8   11 1   
    11    8   16 1   
    12    9   10 2   
    13    9   19 1   
    14   11   12 1   
    15   11   17 1   
    16   11   18 1   
    17   12   13 1   
    18   12   14 1   
    19   19   20 1   
    20   19   24 1   
    21   20   21 1   
    22   20   23 1   
    23   20   25 1   
    24   21   22 2   
    25   21   29 1   
    26   23   26 1   
    27   23   27 1   
    28   23   28 1   
    29   29   30 1   
    30   29   37 1   
    31   30   31 1   
    32   30   33 1   
    33   30   38 1   
    34   31   32 2   
    35   31   41 1   
    36   33   34 1   
    37   33   39 1   
    38   33   40 1   
    39   34   35 1   
    40   34   36 1   
    41   41   42 1   
    42   41   45 1   
    43   42   43 1   
    44   42   46 1   
    45   42   47 1   
    46   43   44 2   
    47   43   48 1   
    48   48   49 1   
    49   48   56 1   
    50   49   50 1   
    51   49   52 1   
    52   49   57 1   
    53   50   51 2   
    54   50   62 1   
    55   52   53 1   
    56   52   58 1   
    57   52   59 1   
    58   53   54 1   
    59   53   55 2   
    60   54   60 1   
    61   54   61 1   
    62   62   63 1   
    63   62   66 1   
    64   63   64 1   
    65   63   67 1   
    66   63   68 1   
    67   64   65 2   
    68   64   69 1   
    69   69   70 1   
    70   69   76 1   
    71   70   71 1   
    72   70   73 1   
    73   70   77 1   
    74   71   72 2   
    75   71   83 1   
    76   73   74 1   
    77   73   75 1   
    78   73   78 1   
    79   74   80 1   
    80   74   81 1   
    81   74   82 1   
    82   75   79 1   
    83   83   84 1   
    84   83   91 1   
    85   84   85 1   
    86   84   87 1   
    87   84   92 1   
    88   85   86 2   
    89   85  102 1   
    90   87   88 1   
    91   87   89 1   
    92   87   93 1   
    93   88   90 1   
    94   88   94 1   
    95   88   95 1   
    96   89   96 1   
    97   89   97 1   
    98   89   98 1   
    99   90   99 1   
   100   90  100 1   
   101   90  101 1   
   102  102  103 1   
   103  102  110 1   
   104  103  104 1   
   105  103  106 1   
   106  103  111 1   
   107  104  105 2   
   108  104  114 1   
   109  106  107 1   
   110  106  112 1   
   111  106  113 1   
   112  107  108 1   
   113  107  109 1   
   114  114  115 1   
   115  114  125 1   
   116  115  116 1   
   117  115  118 1   
   118  115  126 1   
   119  116  117 2   
   120  116  134 1   
   121  118  119 1   
   122  118  127 1   
   123  118  128 1   
   124  119  120 ar  
   125  119  121 ar  
   126  120  122 ar  
   127  120  129 1   
   128  121  123 ar  
   129  121  130 1   
   130  122  124 ar  
   131  122  131 1   
   132  123  124 ar  
   133  123  132 1   
   134  124  133 1   
   135  134  135 1   
   136  134  140 1   
   137  135  136 1   
   138  135  138 1   
   139  135  141 1   
   140  136  137 2   
   141  136  148 1   
   142  138  139 1   
   143  138  142 1   
   144  138  143 1   
   145  139  140 1   
   146  139  144 1   
   147  139  145 1   
   148  140  146 1   
   149  140  147 1   
   150  148  149 1   
   151  148  157 1   
   152  149  150 1   
   153  149  152 1   
   154  149  158 1   
   155  150  151 2   
   156  150  163 1   
   157  152  153 1   
   158  152  159 1   
   159  152  160 1   
   160  153  154 1   
   161  153  161 1   
   162  153  162 1   
   163  154  155 1   
   164  154  156 1   
   165  163  164 1   
   166  163  168 1   
   167  164  165 1   
   168  164  166 1   
   169  164  167 1   
   170  170  171 1   
   171  170  172 1   
   172  173  174 1   
   173  173  175 1   
@<TRIPOS>SUBSTRUCTURE
     1 MOL         1 TEMP              0 ****  ****    0 ROOT
