@<TRIPOS>MOLECULE
MOL
  179   176     1     0     0
SMALL
resp


@<TRIPOS>ATOM
      1 C1          2.0650    2.5410    6.7270 c3        1 MOL     -0.360422
      2 C2          1.9350    2.4720    5.2180 c         1 MOL      0.763759
      3 O1          3.0100    2.3360    4.6350 o         1 MOL     -0.553551
      4 H1          1.2630    1.9640    7.1870 hc        1 MOL      0.087930
      5 H2          3.0280    2.1280    7.0280 hc        1 MOL      0.087930
      6 H3          1.9980    3.5790    7.0510 hc        1 MOL      0.087930
      7 N1          0.7240    2.4520    4.5940 n         1 MOL     -0.639669
      8 C3          0.4760    2.4730    3.1760 c3        1 MOL     -0.054469
      9 C4          0.9090    3.8170    2.4760 c         1 MOL      0.578026
     10 O2          0.8210    4.9640    2.9950 o         1 MOL     -0.552042
     11 C5         -1.0020    2.1020    3.0290 c3        1 MOL      0.148727
     12 C6         -1.4990    1.8850    1.6480 c         1 MOL      0.483551
     13 O3         -2.6280    1.5700    1.3390 o         1 MOL     -0.658920
     14 O4         -0.6480    2.1040    0.7720 o         1 MOL     -0.658920
     15 H4         -0.0890    2.4770    5.1880 hn        1 MOL      0.318694
     16 H5          1.0760    1.7170    2.6740 h1        1 MOL      0.082842
     17 H6         -1.6270    2.8750    3.4860 hc        1 MOL     -0.006244
     18 H7         -1.2070    1.2170    3.6320 hc        1 MOL     -0.006244
     19 N2          1.4470    3.7200    1.2880 n         1 MOL     -0.377136
     20 C7          1.8420    4.7690    0.3320 c3        1 MOL     -0.164004
     21 C8          0.5980    5.4290   -0.3490 c         1 MOL      0.536527
     22 O5          0.7450    6.5820   -0.8180 o         1 MOL     -0.576234
     23 C9          2.8890    4.3130   -0.6930 c3        1 MOL      0.244623
     24 C10         3.8180    5.4100   -1.2080 c3        1 MOL     -0.290594
     25 C11         4.7360    4.9250   -2.3200 c3        1 MOL     -0.069985
     26 C12         5.4400    6.1600   -2.8210 c3        1 MOL      0.105266
     27 N3          6.3170    5.7840   -3.9610 n4        1 MOL     -0.412518
     28 H8          1.3740    2.8080    0.8540 hn        1 MOL      0.250724
     29 H9          2.3680    5.4660    0.9760 h1        1 MOL      0.136343
     30 H10         2.3530    3.8200   -1.5090 hc        1 MOL      0.025401
     31 H11         3.5020    3.5570   -0.1930 hc        1 MOL      0.025401
     32 H12         4.4430    5.8210   -0.4150 hc        1 MOL      0.084468
     33 H13         3.3360    6.2930   -1.6350 hc        1 MOL      0.084468
     34 H14         4.1910    4.3640   -3.0700 hc        1 MOL      0.046603
     35 H15         5.3820    4.1450   -1.9140 hc        1 MOL      0.046603
     36 H16         5.9740    6.6070   -1.9860 hx        1 MOL      0.089147
     37 H17         4.7550    6.9370   -3.1500 hx        1 MOL      0.089147
     38 H18         5.7180    5.4150   -4.6920 hn        1 MOL      0.338012
     39 H19         6.8960    6.5620   -4.2300 hn        1 MOL      0.338012
     40 H20         6.8070    4.9540   -3.6650 hn        1 MOL      0.338012
     41 N4         -0.6450    4.8960   -0.3510 n         1 MOL     -0.333441
     42 C13        -1.8160    5.5900   -1.0520 c3        1 MOL      0.031976
     43 C14        -3.0660    5.4620   -0.1870 c         1 MOL      0.483742
     44 O6         -3.9140    6.2960   -0.4280 o         1 MOL     -0.530139
     45 C15        -2.0650    5.0470   -2.4700 c3        1 MOL     -0.327938
     46 C16        -2.1110    3.5750   -2.6560 c         1 MOL      0.873290
     47 O7         -2.2370    2.8250   -1.6590 o         1 MOL     -0.752565
     48 O8         -1.9720    3.1060   -3.8070 o         1 MOL     -0.752565
     49 H21        -0.7910    3.9160   -0.1470 hn        1 MOL      0.222717
     50 H22        -1.6510    6.6650   -1.1480 h1        1 MOL      0.118641
     51 H23        -1.2830    5.3180   -3.1770 hc        1 MOL      0.089823
     52 H24        -3.0110    5.4090   -2.8840 hc        1 MOL      0.089823
     53 N5         -3.1180    4.4980    0.7410 n         1 MOL     -0.240743
     54 C17        -4.2790    4.2730    1.6000 c3        1 MOL     -0.124470
     55 C18        -5.4320    3.4270    1.0520 c         1 MOL      0.535585
     56 O9         -6.5220    3.6020    1.5750 o         1 MOL     -0.568441
     57 H25        -2.3460    3.8600    0.9210 hn        1 MOL      0.160593
     58 H26        -4.7970    5.1790    1.9150 h1        1 MOL      0.089674
     59 H27        -4.0010    3.6570    2.4610 h1        1 MOL      0.089674
     60 N6         -5.1830    2.6350    0.0280 n         1 MOL     -0.228885
     61 C19        -6.2600    2.0340   -0.8270 c3        1 MOL     -0.050147
     62 C20        -7.0140    0.8040   -0.1930 c         1 MOL      0.446190
     63 O10        -8.1710    0.5370   -0.5900 o         1 MOL     -0.546641
     64 C21        -5.6850    1.6750   -2.2810 c3        1 MOL     -0.271806
     65 C22        -4.7950    0.5140   -2.2200 c         1 MOL      0.784462
     66 N7         -4.8710   -0.2650   -3.2440 n         1 MOL     -0.835989
     67 O11        -4.0890    0.1920   -1.2760 o         1 MOL     -0.753948
     68 H28        -4.2320    2.6680   -0.3170 hn        1 MOL      0.218640
     69 H29        -7.0660    2.7730   -0.8490 h1        1 MOL      0.122018
     70 H30        -5.1070    2.4670   -2.7660 hc        1 MOL      0.109033
     71 H31        -6.5590    1.3930   -2.8830 hc        1 MOL      0.109033
     72 H32        -5.4670   -0.0050   -4.0200 hn        1 MOL      0.379327
     73 H33        -4.3080   -1.0990   -3.2620 hn        1 MOL      0.379327
     74 N8         -6.4580    0.0950    0.7650 n         1 MOL     -0.172937
     75 C23        -6.9870   -1.0670    1.4760 c3        1 MOL     -0.128079
     76 C24        -6.0260   -2.3390    1.4350 c         1 MOL      0.436698
     77 O12        -6.4250   -3.3900    2.0350 o         1 MOL     -0.510426
     78 H34        -5.5810    0.3830    1.1810 hn        1 MOL      0.211297
     79 H35        -7.9430   -1.4430    1.0870 h1        1 MOL      0.107163
     80 H36        -7.1910   -0.8090    2.5130 h1        1 MOL      0.107163
     81 N9         -4.8250   -2.2000    0.8400 n         1 MOL     -0.477994
     82 C25        -3.7390   -3.2610    0.8320 c3        1 MOL      0.456880
     83 C26        -2.3940   -2.5130    0.9860 c         1 MOL      0.289293
     84 O13        -2.3010   -1.3240    0.6590 o         1 MOL     -0.455537
     85 C27        -3.8540   -4.0530   -0.4410 c3        1 MOL      0.099297
     86 C28        -5.1570   -4.7100   -0.7310 ca        1 MOL     -0.347442
     87 C29        -5.4610   -6.0020   -0.2300 ca        1 MOL      0.068518
     88 C30        -6.1020   -4.0270   -1.5360 ca        1 MOL      0.068518
     89 C31        -6.6930   -6.5440   -0.4860 ca        1 MOL     -0.402946
     90 C32        -7.3890   -4.4840   -1.7610 ca        1 MOL     -0.402946
     91 C33        -7.6750   -5.7180   -1.1310 ca        1 MOL      0.512041
     92 O14        -8.9940   -6.1380   -1.1960 oh        1 MOL     -0.553938
     93 H37        -4.6310   -1.3450    0.3240 hn        1 MOL      0.278163
     94 H38        -3.9090   -3.9330    1.6790 h1        1 MOL     -0.017202
     95 H39        -3.0360   -4.7740   -0.4160 hc        1 MOL      0.015087
     96 H40        -3.6260   -3.4000   -1.2890 hc        1 MOL      0.015087
     97 H41        -4.6600   -6.5020    0.2880 ha        1 MOL      0.092037
     98 H42        -5.8460   -3.1020   -2.0390 ha        1 MOL      0.092037
     99 H43        -6.8410   -7.5620   -0.1360 ha        1 MOL      0.183574
    100 H44        -8.1040   -3.9820   -2.3820 ha        1 MOL      0.183574
    101 H45        -9.5770   -5.3830   -1.3030 ho        1 MOL      0.383917
    102 N10        -1.3650   -3.2910    1.2950 n         1 MOL     -0.368048
    103 C34         0.0260   -2.9620    1.1790 c3        1 MOL     -0.172707
    104 C35         0.7490   -4.0660    0.4400 c         1 MOL      0.626778
    105 O15         0.2600   -5.2170    0.3540 o         1 MOL     -0.580699
    106 C36         0.7610   -2.6430    2.4980 c3        1 MOL      0.052908
    107 C37         0.9630   -3.8850    3.3180 c3        1 MOL      0.061405
    108 C38         0.1480   -1.4000    3.2310 c3        1 MOL     -0.029997
    109 C39         1.7810   -3.6490    4.5830 c3        1 MOL     -0.241236
    110 H46        -1.5590   -4.2790    1.3970 hn        1 MOL      0.244795
    111 H47         0.1290   -2.1000    0.5300 h1        1 MOL      0.056919
    112 H48         1.7880   -2.3640    2.2440 hc        1 MOL      0.002521
    113 H49         1.4150   -4.7370    2.7970 hc        1 MOL      0.019393
    114 H50        -0.0020   -4.2610    3.6620 hc        1 MOL      0.019393
    115 H51         0.7340   -1.1630    4.1160 hc        1 MOL      0.031823
    116 H52         0.3010   -0.5970    2.4970 hc        1 MOL      0.031823
    117 H53        -0.9010   -1.5740    3.4540 hc        1 MOL      0.031823
    118 H54         1.1650   -3.0460    5.2420 hc        1 MOL      0.055533
    119 H55         1.9430   -4.6160    5.0560 hc        1 MOL      0.055533
    120 H56         2.7280   -3.2050    4.2700 hc        1 MOL      0.055533
    121 N11         1.8590   -3.6630   -0.1020 n         1 MOL     -0.343321
    122 C40         2.8460   -4.4910   -0.7430 c3        1 MOL     -0.038750
    123 C41         4.2800   -4.2610   -0.3060 c         1 MOL      0.490795
    124 O16         4.5990   -3.2190    0.3550 o         1 MOL     -0.475901
    125 C42         2.7810   -4.3450   -2.2730 c3        1 MOL     -0.005927
    126 O17         3.1560   -3.1210   -2.7170 oh        1 MOL     -0.464690
    127 H57         2.0550   -2.6790    0.0140 hn        1 MOL      0.321087
    128 H58         2.6010   -5.5230   -0.4790 h1        1 MOL      0.093848
    129 H59         1.7930   -4.5920   -2.6530 h1        1 MOL      0.047950
    130 H60         3.4890   -5.0530   -2.7110 h1        1 MOL      0.047950
    131 H61         2.9810   -3.0370   -3.6550 ho        1 MOL      0.390906
    132 N12         5.2640   -5.1350   -0.6040 n         1 MOL     -0.396346
    133 C43         6.6910   -5.0650   -0.2730 c3        1 MOL      0.059924
    134 C44         7.3250   -3.6770   -0.6300 c         1 MOL      0.635316
    135 O18         8.2040   -3.2440    0.0760 o         1 MOL     -0.498196
    136 C45         7.3680   -6.3690   -0.8120 c3        1 MOL     -0.335507
    137 H62         4.9950   -6.0210   -1.0080 hn        1 MOL      0.272469
    138 H63         6.7530   -5.0230    0.8180 h1        1 MOL      0.079985
    139 H64         6.8080   -7.2670   -0.5780 hc        1 MOL      0.109344
    140 H65         7.4840   -6.2360   -1.8860 hc        1 MOL      0.109344
    141 H66         8.3760   -6.3350   -0.3890 hc        1 MOL      0.109344
    142 N13         6.9190   -3.0730   -1.8450 n         1 MOL     -0.548712
    143 C46         7.4700   -1.7630   -2.2130 c3        1 MOL      0.159270
    144 C47         7.0290   -0.6390   -1.2510 c         1 MOL      0.390890
    145 O19         7.8720    0.0510   -0.6670 o         1 MOL     -0.513708
    146 C48         7.1850   -1.4450   -3.6580 c3        1 MOL     -0.285355
    147 H67         6.2220   -3.4520   -2.4740 hn        1 MOL      0.297621
    148 H68         8.5510   -1.8360   -2.1530 h1        1 MOL      0.081044
    149 H69         6.1200   -1.4920   -3.9100 hc        1 MOL      0.072904
    150 H70         7.6690   -0.5100   -3.9460 hc        1 MOL      0.072904
    151 H71         7.6130   -2.2710   -4.2220 hc        1 MOL      0.072904
    152 N14         5.7510   -0.5810   -0.9260 n         1 MOL     -0.250166
    153 C49         5.2430    0.4050    0.0470 c3        1 MOL     -0.228942
    154 C50         5.8100    0.2580    1.4540 c         1 MOL      0.476796
    155 O20         5.9590    1.2210    2.2070 o         1 MOL     -0.523754
    156 C51         3.7440    0.3330    0.1740 c3        1 MOL      0.245286
    157 C52         3.1230    0.4450   -1.2260 c3        1 MOL      0.058376
    158 C53         1.6140    0.5070   -1.2070 c         1 MOL      0.725358
    159 O21         0.9100    1.1800   -1.9700 o         1 MOL     -0.783846
    160 O22         0.9810   -0.2540   -0.4460 o         1 MOL     -0.783846
    161 H72         5.1020   -1.2310   -1.3440 hn        1 MOL      0.234129
    162 H73         5.5200    1.4110   -0.2590 h1        1 MOL      0.120627
    163 H74         3.4630    1.1220    0.8660 hc        1 MOL     -0.058972
    164 H75         3.5150   -0.6530    0.5730 hc        1 MOL     -0.058972
    165 H76         3.3470   -0.4630   -1.7890 hc        1 MOL     -0.085512
    166 H77         3.5410    1.3230   -1.6990 hc        1 MOL     -0.085512
    167 N15         6.0900   -1.0020    1.8110 n         1 MOL     -0.014574
    168 C54         6.7040   -1.3630    3.0480 c3        1 MOL     -0.364280
    169 H78         7.7350   -1.0090    3.0590 h1        1 MOL      0.126327
    170 H79         6.1550   -0.9100    3.8730 h1        1 MOL      0.126327
    171 H80         6.6930   -2.4480    3.1560 h1        1 MOL      0.126327
    172 H81         5.8830   -1.7250    1.1420 hn        1 MOL      0.127452
    173 Ca1        -1.4720    0.5000   -1.1040 Ca        1 MOL      1.819687
    174 O23        -1.7160    0.5180   -3.6820 oh        1 MOL     -0.870678
    175 H82        -1.5920    1.4360   -3.9110 ho        1 MOL      0.411555
    176 H83        -2.0150    0.1060   -4.4830 ho        1 MOL      0.411555
    177 O24        -1.1510   -2.2960   -2.0380 oh        1 MOL     -0.870678
    178 H84        -1.2860   -3.2180   -2.2690 ho        1 MOL      0.411555
    179 H85        -0.3060   -2.0750   -2.4320 ho        1 MOL      0.411555
@<TRIPOS>BOND
     1    1    2 1   
     2    1    4 1   
     3    1    5 1   
     4    1    6 1   
     5    2    3 2   
     6    2    7 1   
     7    7    8 1   
     8    7   15 1   
     9    8    9 1   
    10    8   11 1   
    11    8   16 1   
    12    9   10 2   
    13    9   19 1   
    14   11   12 1   
    15   11   17 1   
    16   11   18 1   
    17   12   13 1   
    18   12   14 1   
    19   19   20 1   
    20   19   28 1   
    21   20   21 1   
    22   20   23 1   
    23   20   29 1   
    24   21   22 2   
    25   21   41 1   
    26   23   24 1   
    27   23   30 1   
    28   23   31 1   
    29   24   25 1   
    30   24   32 1   
    31   24   33 1   
    32   25   26 1   
    33   25   34 1   
    34   25   35 1   
    35   26   27 1   
    36   26   36 1   
    37   26   37 1   
    38   27   38 1   
    39   27   39 1   
    40   27   40 1   
    41   41   42 1   
    42   41   49 1   
    43   42   43 1   
    44   42   45 1   
    45   42   50 1   
    46   43   44 2   
    47   43   53 1   
    48   45   46 1   
    49   45   51 1   
    50   45   52 1   
    51   46   47 1   
    52   46   48 1   
    53   53   54 1   
    54   53   57 1   
    55   54   55 1   
    56   54   58 1   
    57   54   59 1   
    58   55   56 2   
    59   55   60 1   
    60   60   61 1   
    61   60   68 1   
    62   61   62 1   
    63   61   64 1   
    64   61   69 1   
    65   62   63 2   
    66   62   74 1   
    67   64   65 1   
    68   64   70 1   
    69   64   71 1   
    70   65   66 1   
    71   65   67 2   
    72   66   72 1   
    73   66   73 1   
    74   74   75 1   
    75   74   78 1   
    76   75   76 1   
    77   75   79 1   
    78   75   80 1   
    79   76   77 2   
    80   76   81 1   
    81   81   82 1   
    82   81   93 1   
    83   82   83 1   
    84   82   85 1   
    85   82   94 1   
    86   83   84 2   
    87   83  102 1   
    88   85   86 1   
    89   85   95 1   
    90   85   96 1   
    91   86   87 ar  
    92   86   88 ar  
    93   87   89 ar  
    94   87   97 1   
    95   88   90 ar  
    96   88   98 1   
    97   89   91 ar  
    98   89   99 1   
    99   90   91 ar  
   100   90  100 1   
   101   91   92 1   
   102   92  101 1   
   103  102  103 1   
   104  102  110 1   
   105  103  104 1   
   106  103  106 1   
   107  103  111 1   
   108  104  105 2   
   109  104  121 1   
   110  106  107 1   
   111  106  108 1   
   112  106  112 1   
   113  107  109 1   
   114  107  113 1   
   115  107  114 1   
   116  108  115 1   
   117  108  116 1   
   118  108  117 1   
   119  109  118 1   
   120  109  119 1   
   121  109  120 1   
   122  121  122 1   
   123  121  127 1   
   124  122  123 1   
   125  122  125 1   
   126  122  128 1   
   127  123  124 2   
   128  123  132 1   
   129  125  126 1   
   130  125  129 1   
   131  125  130 1   
   132  126  131 1   
   133  132  133 1   
   134  132  137 1   
   135  133  134 1   
   136  133  136 1   
   137  133  138 1   
   138  134  135 2   
   139  134  142 1   
   140  136  139 1   
   141  136  140 1   
   142  136  141 1   
   143  142  143 1   
   144  142  147 1   
   145  143  144 1   
   146  143  146 1   
   147  143  148 1   
   148  144  145 2   
   149  144  152 1   
   150  146  149 1   
   151  146  150 1   
   152  146  151 1   
   153  152  153 1   
   154  152  161 1   
   155  153  154 1   
   156  153  156 1   
   157  153  162 1   
   158  154  155 2   
   159  154  167 1   
   160  156  157 1   
   161  156  163 1   
   162  156  164 1   
   163  157  158 1   
   164  157  165 1   
   165  157  166 1   
   166  158  159 1   
   167  158  160 1   
   168  167  168 1   
   169  167  172 1   
   170  168  169 1   
   171  168  170 1   
   172  168  171 1   
   173  174  175 1   
   174  174  176 1   
   175  177  178 1   
   176  177  179 1   
@<TRIPOS>SUBSTRUCTURE
     1 MOL         1 TEMP              0 ****  ****    0 ROOT
