@<TRIPOS>MOLECULE
MOL
  189   185     1     0     0
SMALL
resp


@<TRIPOS>ATOM
      1 C1          0.3670    3.1690    5.0600 c3        1 MOL     -0.348777
      2 C2         -0.2580    2.6150    3.8370 c         1 MOL      0.631989
      3 O1          0.3250    2.7780    2.7600 o         1 MOL     -0.575779
      4 H1          0.4380    4.2530    4.9710 hc        1 MOL      0.088950
      5 H2         -0.2430    2.9150    5.9270 hc        1 MOL      0.088950
      6 H3          1.3650    2.7480    5.1810 hc        1 MOL      0.088950
      7 N1         -1.4540    2.0640    3.8100 n         1 MOL     -0.543515
      8 C3         -2.1250    1.6390    2.6030 c3        1 MOL      0.198122
      9 C4         -2.6940    2.8930    1.9320 c         1 MOL      0.336236
     10 O2         -3.7400    3.4420    2.3460 o         1 MOL     -0.537009
     11 C5         -3.2690    0.6720    2.7940 c3        1 MOL     -0.490465
     12 C6         -4.0540    0.3790    1.4960 c         1 MOL      0.809460
     13 O3         -3.4530    0.6780    0.4240 o         1 MOL     -0.635341
     14 O4         -5.1710   -0.2020    1.4810 o         1 MOL     -0.635341
     15 H4         -1.7710    1.6890    4.6880 hn        1 MOL      0.334481
     16 H5         -1.3360    1.2080    1.9870 h1        1 MOL      0.035951
     17 H6         -3.9430    1.0410    3.5730 hc        1 MOL      0.115855
     18 H7         -2.8520   -0.2460    3.1960 hc        1 MOL      0.115855
     19 N2         -1.9930    3.4120    0.9330 n         1 MOL     -0.076116
     20 C7         -2.2510    4.8340    0.4030 c3        1 MOL      0.032642
     21 C8         -3.3320    4.8420   -0.7000 c         1 MOL      0.498787
     22 O5         -3.6890    5.9210   -1.0920 o         1 MOL     -0.572533
     23 C9         -0.9930    5.5870   -0.0760 c3        1 MOL      0.014040
     24 C10        -0.0320    5.7570    1.0580 c3        1 MOL     -0.001459
     25 C11        -0.6010    6.6900    2.1840 c3        1 MOL     -0.089437
     26 C12         0.5040    7.0510    3.1690 c3        1 MOL      0.108265
     27 N3          0.0710    7.9200    4.2730 n4        1 MOL     -0.517122
     28 H8         -1.1860    2.8980    0.6000 hn        1 MOL      0.201953
     29 H9         -2.6940    5.3660    1.2440 h1        1 MOL      0.011524
     30 H10        -1.2350    6.5890   -0.4300 hc        1 MOL      0.025432
     31 H11        -0.4780    5.0120   -0.8490 hc        1 MOL      0.025432
     32 H12         0.8320    6.3240    0.7310 hc        1 MOL      0.001418
     33 H13         0.3250    4.8710    1.5910 hc        1 MOL      0.001418
     34 H14        -1.4310    6.2040    2.7000 hc        1 MOL      0.050051
     35 H15        -1.0420    7.5840    1.7400 hc        1 MOL      0.050051
     36 H16         1.2060    7.5890    2.5160 hx        1 MOL      0.068444
     37 H17         1.1590    6.2430    3.4900 hx        1 MOL      0.068444
     38 H18         0.8840    8.3070    4.7210 hn        1 MOL      0.366044
     39 H19        -0.4620    8.7320    3.9980 hn        1 MOL      0.366044
     40 H20        -0.4000    7.2920    4.9200 hn        1 MOL      0.366044
     41 N4         -3.6940    3.6740   -1.2430 n         1 MOL     -0.352152
     42 C13        -4.5510    3.6030   -2.4780 c3        1 MOL     -0.084643
     43 C14        -5.7540    2.5690   -2.3010 c         1 MOL      0.435061
     44 O6         -6.3150    2.0320   -3.2180 o         1 MOL     -0.443892
     45 C15        -3.6800    3.4180   -3.7610 c3        1 MOL     -0.130170
     46 C16        -2.6270    2.3150   -3.6250 c         1 MOL      0.826453
     47 O7         -2.5900    1.6140   -2.5970 o         1 MOL     -0.727200
     48 O8         -1.7700    2.2650   -4.5330 o         1 MOL     -0.727200
     49 H21        -3.2890    2.7850   -0.9900 hn        1 MOL      0.204494
     50 H22        -4.9930    4.5720   -2.7000 h1        1 MOL      0.118296
     51 H23        -3.3220    4.4040   -4.0470 hc        1 MOL      0.036996
     52 H24        -4.2860    3.0880   -4.6110 hc        1 MOL      0.036996
     53 N5         -6.2000    2.3850   -1.0840 n         1 MOL     -0.277579
     54 C17        -7.5510    1.9290   -0.7060 c3        1 MOL     -0.086026
     55 C18        -7.8460    0.5800   -1.4550 c         1 MOL      0.409505
     56 O9         -8.9200    0.4960   -2.0680 o         1 MOL     -0.549142
     57 H25        -5.6940    2.7040   -0.2640 hn        1 MOL      0.226777
     58 H26        -8.2860    2.7050   -0.9020 h1        1 MOL      0.086227
     59 H27        -7.5600    1.7030    0.3590 h1        1 MOL      0.086227
     60 N6         -6.9400   -0.3940   -1.4410 n         1 MOL     -0.188615
     61 C19        -7.0710   -1.7450   -1.9860 c3        1 MOL      0.185404
     62 C20        -7.1030   -2.8090   -0.9010 c         1 MOL      0.316067
     63 O10        -7.8710   -3.7570   -1.0020 o         1 MOL     -0.530815
     64 C21        -5.9400   -2.0570   -2.9080 c3        1 MOL     -0.183662
     65 C22        -4.5410   -1.7100   -2.3840 c         1 MOL      0.753166
     66 O11        -4.2060   -1.9160   -1.1970 o         1 MOL     -0.729873
     67 O12        -3.6950   -1.2880   -3.2020 o         1 MOL     -0.729873
     68 H28        -6.0860   -0.2610   -0.9240 hn        1 MOL      0.117457
     69 H29        -7.9660   -1.9730   -2.5710 h1        1 MOL      0.050930
     70 H30        -6.1330   -1.4110   -3.7620 hc        1 MOL      0.045876
     71 H31        -5.9260   -3.0880   -3.2520 hc        1 MOL      0.045876
     72 N7         -6.4790   -2.5000    0.2750 n         1 MOL     -0.119055
     73 C23        -6.4530   -3.3190    1.5050 c3        1 MOL      0.001541
     74 C24        -5.2640   -4.2260    1.6740 c         1 MOL      0.525049
     75 O13        -5.3310   -5.2000    2.4270 o         1 MOL     -0.585390
     76 H32        -6.0460   -1.5860    0.3370 hn        1 MOL      0.108382
     77 H33        -7.3740   -3.8900    1.5750 h1        1 MOL      0.041029
     78 H34        -6.4690   -2.6100    2.3230 h1        1 MOL      0.041029
     79 N8         -4.1790   -3.8580    1.0010 n         1 MOL     -0.215099
     80 C25        -2.8030   -4.4410    1.2730 c3        1 MOL     -0.109491
     81 C26        -1.6510   -3.4220    1.3580 c         1 MOL      0.636305
     82 O14        -1.8630   -2.2890    0.9110 o         1 MOL     -0.582966
     83 C27        -2.4500   -5.6470    0.3200 c3        1 MOL      0.385779
     84 C28        -3.4450   -6.8220    0.3680 c3        1 MOL     -0.439942
     85 O15        -2.3680   -5.1640   -0.9670 oh        1 MOL     -0.629151
     86 H35        -4.2420   -3.0430    0.4080 hn        1 MOL      0.174293
     87 H36        -2.9490   -4.9370    2.2320 h1        1 MOL      0.068569
     88 H37        -1.4950   -6.1180    0.5480 h1        1 MOL     -0.014318
     89 H38        -2.6310   -5.8390   -1.5960 ho        1 MOL      0.418379
     90 H39        -4.4850   -6.5360    0.1950 hc        1 MOL      0.119638
     91 H40        -3.2210   -7.4400   -0.4970 hc        1 MOL      0.119638
     92 H41        -3.3000   -7.3190    1.3310 hc        1 MOL      0.119638
     93 N9         -0.5200   -3.7880    1.9170 n         1 MOL     -0.536813
     94 C29         0.6990   -3.0250    1.9680 c3        1 MOL      0.174331
     95 C30         1.7360   -3.6310    0.9410 c         1 MOL      0.518962
     96 O16         2.0410   -4.7840    0.9170 o         1 MOL     -0.545041
     97 C31         1.2340   -2.8690    3.4280 c3        1 MOL     -0.013473
     98 C32         0.6130   -1.7810    4.2820 c3        1 MOL      0.000255
     99 C33         2.7520   -2.5920    3.4180 c3        1 MOL     -0.129201
    100 C34         0.5970   -1.8620    5.8360 c3        1 MOL     -0.185782
    101 H42        -0.5440   -4.6870    2.3600 hn        1 MOL      0.273401
    102 H43         0.4090   -2.0040    1.7320 h1        1 MOL      0.051714
    103 H44         1.0440   -3.7940    3.9700 hc        1 MOL      0.044933
    104 H45        -0.4320   -1.6650    3.9890 hc        1 MOL      0.035626
    105 H46         1.0920   -0.8050    4.1410 hc        1 MOL      0.035626
    106 H47         3.2580   -3.4700    3.0230 hc        1 MOL      0.013506
    107 H48         3.0460   -1.7090    2.8610 hc        1 MOL      0.013506
    108 H49         3.2110   -2.3550    4.3810 hc        1 MOL      0.013506
    109 H50         1.5700   -1.7770    6.3120 hc        1 MOL      0.046151
    110 H51        -0.1640   -1.1870    6.2250 hc        1 MOL      0.046151
    111 H52         0.3640   -2.8450    6.2400 hc        1 MOL      0.046151
    112 N10         2.3350   -2.7460    0.0970 n         1 MOL     -0.198500
    113 C35         3.3930   -3.0360   -0.8890 c3        1 MOL      0.042461
    114 C36         4.7940   -2.6460   -0.3730 c         1 MOL      0.414686
    115 O17         4.8730   -1.9100    0.5810 o         1 MOL     -0.346989
    116 C37         3.1970   -2.3170   -2.2100 c3        1 MOL      0.432733
    117 C38         2.1150   -2.9760   -2.9660 c3        1 MOL     -0.192600
    118 O18         2.8560   -0.9760   -1.9070 oh        1 MOL     -0.675495
    119 H53         2.0030   -1.7980    0.0030 hn        1 MOL      0.012508
    120 H54         3.4340   -4.1160   -1.0110 h1        1 MOL      0.038219
    121 H55         4.0850   -2.3370   -2.8350 h1        1 MOL     -0.030058
    122 H56         1.9670   -0.9780   -1.5630 ho        1 MOL      0.421274
    123 H57         1.2210   -3.2920   -2.4140 hc        1 MOL      0.026912
    124 H58         1.7810   -2.3630   -3.8030 hc        1 MOL      0.026912
    125 H59         2.6300   -3.8820   -3.2850 hc        1 MOL      0.026912
    126 N11         5.9000   -3.0330   -1.0630 n         1 MOL     -0.393891
    127 C39         7.3020   -2.7900   -0.6610 c3        1 MOL     -0.004210
    128 C40         7.4210   -1.3790   -0.3540 c         1 MOL      0.473602
    129 O19         7.6330   -1.0840    0.8150 o         1 MOL     -0.527780
    130 C41         8.2440   -3.2300   -1.7900 c3        1 MOL      0.262072
    131 C42         9.7550   -2.9680   -1.5000 c3        1 MOL     -0.238333
    132 O20         8.0910   -4.6480   -1.7140 oh        1 MOL     -0.575857
    133 H60         5.6830   -3.6490   -1.8320 hn        1 MOL      0.218296
    134 H61         7.6360   -3.3110    0.2360 h1        1 MOL      0.144293
    135 H62         7.9890   -2.8870   -2.7900 h1        1 MOL      0.005303
    136 H63         8.2120   -4.8870   -2.6370 ho        1 MOL      0.384012
    137 H64        10.2860   -3.6140   -2.2030 hc        1 MOL      0.071231
    138 H65         9.9210   -1.9170   -1.7460 hc        1 MOL      0.071231
    139 H66        10.1360   -3.1400   -0.4910 hc        1 MOL      0.071231
    140 N12         7.0550   -0.4490   -1.2410 n         1 MOL     -0.352791
    141 C43         7.2320    1.0210   -1.0140 c3        1 MOL     -0.098621
    142 C44         6.3580    1.6570    0.1690 c         1 MOL      0.437890
    143 O21         6.7280    2.7360    0.6810 o         1 MOL     -0.526271
    144 C45         6.9090    1.8230   -2.2750 c3        1 MOL     -0.186725
    145 C46         7.9540    1.6320   -3.3480 c3        1 MOL      0.120483
    146 C47         7.5430    2.4950   -4.5800 c3        1 MOL     -0.019266
    147 C48         7.4440    4.0230   -4.2340 c3        1 MOL     -0.060564
    148 N13         6.7640    4.7170   -5.2920 n4        1 MOL     -0.283922
    149 H67         6.7250   -0.8100   -2.1300 hn        1 MOL      0.246572
    150 H68         8.2730    1.0590   -0.7010 h1        1 MOL      0.139132
    151 H69         6.7920    2.8370   -1.9080 hc        1 MOL      0.085436
    152 H70         5.9440    1.4500   -2.6250 hc        1 MOL      0.085436
    153 H71         8.0010    0.5900   -3.6680 hc        1 MOL     -0.011727
    154 H72         8.9370    1.9760   -3.0520 hc        1 MOL     -0.011727
    155 H73         6.5890    2.1510   -4.9690 hc        1 MOL      0.028249
    156 H74         8.2220    2.2560   -5.3930 hc        1 MOL      0.028249
    157 H75         8.4220    4.4290   -3.9780 hx        1 MOL      0.119091
    158 H76         6.8510    4.1590   -3.3260 hx        1 MOL      0.119091
    159 H77         6.7820    5.7110   -5.1430 hn        1 MOL      0.291171
    160 H78         7.0800    4.4390   -6.2070 hn        1 MOL      0.291171
    161 H79         5.8130    4.3860   -5.4190 hn        1 MOL      0.291171
    162 N14         5.2550    0.9750    0.5250 n         1 MOL     -0.245711
    163 C49         4.2900    1.3110    1.6980 c3        1 MOL      0.000777
    164 C50         4.6790    0.7950    3.0640 c         1 MOL      0.425687
    165 O22         4.5960    1.5460    4.0660 o         1 MOL     -0.559406
    166 C51         2.8580    0.7580    1.3640 c3        1 MOL     -0.013103
    167 C52         2.2010    1.3940    0.1380 c3        1 MOL     -0.024177
    168 C53         0.8180    0.7760   -0.1590 c         1 MOL      0.689235
    169 O23        -0.2090    1.4680   -0.3240 o         1 MOL     -0.670942
    170 O24         0.7260   -0.4620   -0.3000 o         1 MOL     -0.670942
    171 H80         5.1900    0.0450    0.1270 hn        1 MOL      0.176007
    172 H81         4.2350    2.3730    1.9230 h1        1 MOL      0.083764
    173 H82         2.2170    0.8930    2.2230 hc        1 MOL      0.050684
    174 H83         2.8210   -0.2590    0.9710 hc        1 MOL      0.050684
    175 H84         2.8330    1.3060   -0.7360 hc        1 MOL     -0.016983
    176 H85         2.1320    2.4710    0.3120 hc        1 MOL     -0.016983
    177 N15         5.2970   -0.3890    3.0630 n         1 MOL      0.019024
    178 C54         6.0600   -0.7940    4.1890 c3        1 MOL     -0.261125
    179 H86         5.9160   -1.8610    4.3590 h1        1 MOL      0.094915
    180 H87         7.1150   -0.5950    4.0040 h1        1 MOL      0.094915
    181 H88         5.7330   -0.2390    5.0680 h1        1 MOL      0.094915
    182 H89         5.2700   -0.9080    2.1980 hn        1 MOL      0.123538
    183 Ca1        -1.9650   -0.5260   -1.2030 Ca        1 MOL      1.661718
    184 O25        -1.3100   -2.9690   -2.1030 oh        1 MOL     -0.809889
    185 H90        -1.7990   -3.7030   -1.7300 ho        1 MOL      0.388829
    186 H91        -0.9600   -3.3190   -2.9220 ho        1 MOL      0.388829
    187 O26        -0.3150   -0.1820   -3.3210 oh        1 MOL     -0.809889
    188 H92         0.4040   -0.5970   -3.8010 ho        1 MOL      0.388829
    189 H93        -0.7670    0.3580   -3.9720 ho        1 MOL      0.388829
@<TRIPOS>BOND
     1    1    2 1   
     2    1    4 1   
     3    1    5 1   
     4    1    6 1   
     5    2    3 2   
     6    2    7 1   
     7    7    8 1   
     8    7   15 1   
     9    8    9 1   
    10    8   11 1   
    11    8   16 1   
    12    9   10 2   
    13    9   19 1   
    14   11   12 1   
    15   11   17 1   
    16   11   18 1   
    17   12   13 1   
    18   12   14 1   
    19   19   20 1   
    20   19   28 1   
    21   20   21 1   
    22   20   23 1   
    23   20   29 1   
    24   21   22 2   
    25   21   41 1   
    26   23   24 1   
    27   23   30 1   
    28   23   31 1   
    29   24   25 1   
    30   24   32 1   
    31   24   33 1   
    32   25   26 1   
    33   25   34 1   
    34   25   35 1   
    35   26   27 1   
    36   26   36 1   
    37   26   37 1   
    38   27   38 1   
    39   27   39 1   
    40   27   40 1   
    41   41   42 1   
    42   41   49 1   
    43   42   43 1   
    44   42   45 1   
    45   42   50 1   
    46   43   44 2   
    47   43   53 1   
    48   45   46 1   
    49   45   51 1   
    50   45   52 1   
    51   46   47 1   
    52   46   48 1   
    53   53   54 1   
    54   53   57 1   
    55   54   55 1   
    56   54   58 1   
    57   54   59 1   
    58   55   56 2   
    59   55   60 1   
    60   60   61 1   
    61   60   68 1   
    62   61   62 1   
    63   61   64 1   
    64   61   69 1   
    65   62   63 2   
    66   62   72 1   
    67   64   65 1   
    68   64   70 1   
    69   64   71 1   
    70   65   66 1   
    71   65   67 1   
    72   72   73 1   
    73   72   76 1   
    74   73   74 1   
    75   73   77 1   
    76   73   78 1   
    77   74   75 2   
    78   74   79 1   
    79   79   80 1   
    80   79   86 1   
    81   80   81 1   
    82   80   83 1   
    83   80   87 1   
    84   81   82 2   
    85   81   93 1   
    86   83   84 1   
    87   83   85 1   
    88   83   88 1   
    89   84   90 1   
    90   84   91 1   
    91   84   92 1   
    92   85   89 1   
    93   93   94 1   
    94   93  101 1   
    95   94   95 1   
    96   94   97 1   
    97   94  102 1   
    98   95   96 2   
    99   95  112 1   
   100   97   98 1   
   101   97   99 1   
   102   97  103 1   
   103   98  100 1   
   104   98  104 1   
   105   98  105 1   
   106   99  106 1   
   107   99  107 1   
   108   99  108 1   
   109  100  109 1   
   110  100  110 1   
   111  100  111 1   
   112  112  113 1   
   113  112  119 1   
   114  113  114 1   
   115  113  116 1   
   116  113  120 1   
   117  114  115 2   
   118  114  126 1   
   119  116  117 1   
   120  116  118 1   
   121  116  121 1   
   122  117  123 1   
   123  117  124 1   
   124  117  125 1   
   125  118  122 1   
   126  126  127 1   
   127  126  133 1   
   128  127  128 1   
   129  127  130 1   
   130  127  134 1   
   131  128  129 2   
   132  128  140 1   
   133  130  131 1   
   134  130  132 1   
   135  130  135 1   
   136  131  137 1   
   137  131  138 1   
   138  131  139 1   
   139  132  136 1   
   140  140  141 1   
   141  140  149 1   
   142  141  142 1   
   143  141  144 1   
   144  141  150 1   
   145  142  143 2   
   146  142  162 1   
   147  144  145 1   
   148  144  151 1   
   149  144  152 1   
   150  145  146 1   
   151  145  153 1   
   152  145  154 1   
   153  146  147 1   
   154  146  155 1   
   155  146  156 1   
   156  147  148 1   
   157  147  157 1   
   158  147  158 1   
   159  148  159 1   
   160  148  160 1   
   161  148  161 1   
   162  162  163 1   
   163  162  171 1   
   164  163  164 1   
   165  163  166 1   
   166  163  172 1   
   167  164  165 2   
   168  164  177 1   
   169  166  167 1   
   170  166  173 1   
   171  166  174 1   
   172  167  168 1   
   173  167  175 1   
   174  167  176 1   
   175  168  169 1   
   176  168  170 1   
   177  177  178 1   
   178  177  182 1   
   179  178  179 1   
   180  178  180 1   
   181  178  181 1   
   182  184  185 1   
   183  184  186 1   
   184  187  188 1   
   185  187  189 1   
@<TRIPOS>SUBSTRUCTURE
     1 MOL         1 TEMP              0 ****  ****    0 ROOT
