@<TRIPOS>MOLECULE
MOL
  189   185     1     0     0
SMALL
resp


@<TRIPOS>ATOM
      1 C1         -0.5760    3.3720   -4.8060 c3        1 MOL     -0.326677
      2 C2          0.0430    3.0620   -3.3610 c         1 MOL      0.501525
      3 O1         -0.4040    3.5580   -2.3290 o         1 MOL     -0.493923
      4 H1         -1.3520    2.6410   -5.0320 hc        1 MOL      0.095581
      5 H2         -1.0070    4.3730   -4.8090 hc        1 MOL      0.095581
      6 H3          0.2100    3.3120   -5.5590 hc        1 MOL      0.095581
      7 N1          1.2440    2.3680   -3.4260 n         1 MOL     -0.523266
      8 C3          2.0240    2.0310   -2.2500 c3        1 MOL      0.280873
      9 C4          2.7640    3.1960   -1.5890 c         1 MOL      0.358893
     10 O2          4.0320    3.2440   -1.5810 o         1 MOL     -0.435506
     11 C5          2.8880    0.8880   -2.5960 c3        1 MOL     -0.224897
     12 C6          3.7990    0.3330   -1.5110 c         1 MOL      0.623656
     13 O3          3.3710    0.0590   -0.3520 o         1 MOL     -0.609909
     14 O4          4.9910    0.2010   -1.8020 o         1 MOL     -0.609909
     15 H4          1.5680    2.0290   -4.3180 hn        1 MOL      0.333083
     16 H5          1.3950    1.6060   -1.4690 h1        1 MOL      0.040001
     17 H6          3.5050    1.0880   -3.4670 hc        1 MOL      0.030494
     18 H7          2.2230    0.0310   -2.7720 hc        1 MOL      0.030494
     19 N2          2.0480    4.1990   -1.0260 n         1 MOL     -0.460647
     20 C7          2.5820    5.3620   -0.2510 c3        1 MOL     -0.003418
     21 C8          3.1580    5.0760    1.1040 c         1 MOL      0.504860
     22 O5          3.6440    6.0670    1.6450 o         1 MOL     -0.572270
     23 C9          1.4310    6.3740   -0.1510 c3        1 MOL     -0.129341
     24 C10         0.9360    7.0430   -1.4500 c3        1 MOL     -0.029578
     25 C11        -0.1370    8.1140   -1.2930 c3        1 MOL      0.061707
     26 C12        -1.1170    8.1590   -2.5080 c3        1 MOL     -0.106600
     27 N3         -0.3670    8.4260   -3.7620 n4        1 MOL     -0.184624
     28 H8          1.0590    4.1480   -1.2080 hn        1 MOL      0.320044
     29 H9          3.4690    5.7430   -0.7490 h1        1 MOL      0.119475
     30 H10         1.6880    7.2820    0.4020 hc        1 MOL      0.084448
     31 H11         0.5330    5.9740    0.3280 hc        1 MOL      0.084448
     32 H12         0.3400    6.2370   -1.8880 hc        1 MOL      0.008289
     33 H13         1.7020    7.3460   -2.1610 hc        1 MOL      0.008289
     34 H14         0.3100    9.0990   -1.1460 hc        1 MOL      0.023243
     35 H15        -0.6970    7.8950   -0.3810 hc        1 MOL      0.023243
     36 H16        -1.6820    9.0650   -2.2880 hx        1 MOL      0.117180
     37 H17        -1.6870    7.2370   -2.6370 hx        1 MOL      0.117180
     38 H18         0.2750    9.2110   -3.7190 hn        1 MOL      0.280690
     39 H19         0.1480    7.5890   -4.0030 hn        1 MOL      0.280690
     40 H20        -1.0230    8.5320   -4.5220 hn        1 MOL      0.280690
     41 N4          3.0960    3.8770    1.6360 n         1 MOL     -0.437918
     42 C13         3.9520    3.5070    2.8250 c3        1 MOL      0.299623
     43 C14         5.1760    2.6970    2.4340 c         1 MOL      0.307992
     44 O6          6.0150    2.5110    3.2800 o         1 MOL     -0.484556
     45 C15         3.2640    3.0060    4.0680 c3        1 MOL     -0.241654
     46 C16         2.6420    1.6210    3.8040 c         1 MOL      0.849691
     47 O7          2.6790    1.1700    2.6560 o         1 MOL     -0.735935
     48 O8          1.9640    1.0570    4.7180 o         1 MOL     -0.735935
     49 H21         2.6660    3.0920    1.1670 hn        1 MOL      0.286204
     50 H22         4.4790    4.3840    3.1950 h1        1 MOL      0.036056
     51 H23         2.4970    3.7250    4.3610 hc        1 MOL      0.041733
     52 H24         4.0320    3.0640    4.8430 hc        1 MOL      0.041733
     53 N5          5.3750    2.2750    1.1590 n         1 MOL      0.007106
     54 C17         6.7190    1.8170    0.6580 c3        1 MOL     -0.273351
     55 C18         7.1280    0.4740    1.1510 c         1 MOL      0.493335
     56 O9          8.1600    0.4630    1.7980 o         1 MOL     -0.546201
     57 H25         4.6470    2.5910    0.5310 hn        1 MOL      0.045772
     58 H26         7.5350    2.4510    1.0140 h1        1 MOL      0.121538
     59 H27         6.6600    1.7800   -0.4280 h1        1 MOL      0.121538
     60 N6          6.3590   -0.5960    1.0300 n         1 MOL     -0.079757
     61 C19         6.6170   -1.9650    1.4850 c3        1 MOL      0.094508
     62 C20         6.9340   -3.0190    0.4110 c         1 MOL      0.349140
     63 O10         7.5250   -4.0760    0.6270 o         1 MOL     -0.503114
     64 C21         5.6970   -2.5110    2.6030 c3        1 MOL     -0.157778
     65 C22         4.2590   -2.1120    2.3760 c         1 MOL      0.662794
     66 O11         3.7440   -2.4960    1.3190 o         1 MOL     -0.673944
     67 O12         3.5810   -1.4320    3.1820 o         1 MOL     -0.673944
     68 H28         5.4790   -0.4830    0.5530 hn        1 MOL     -0.007186
     69 H29         7.5980   -1.8620    1.9520 h1        1 MOL      0.039773
     70 H30         5.8860   -2.0540    3.5760 hc        1 MOL      0.048217
     71 H31         5.7880   -3.6010    2.6490 hc        1 MOL      0.048217
     72 N7          6.5090   -2.6920   -0.7760 n         1 MOL     -0.240194
     73 C23         6.4310   -3.6080   -1.8620 c3        1 MOL      0.075332
     74 C24         5.1270   -4.4400   -1.8170 c         1 MOL      0.400096
     75 O13         5.1060   -5.5990   -2.2670 o         1 MOL     -0.541240
     76 H32         6.0040   -1.8160   -0.8280 hn        1 MOL      0.152939
     77 H33         7.2920   -4.2820   -1.8580 h1        1 MOL      0.047844
     78 H34         6.5120   -3.0960   -2.8230 h1        1 MOL      0.047844
     79 N8          4.0200   -3.9380   -1.2360 n         1 MOL     -0.107503
     80 C25         2.6620   -4.5600   -1.2600 c3        1 MOL     -0.458722
     81 C26         1.4980   -3.6300   -1.2110 c         1 MOL      0.766541
     82 O14         1.3610   -2.6780   -0.4590 o         1 MOL     -0.660588
     83 C27         2.4930   -5.5270   -0.0640 c3        1 MOL      0.499876
     84 C28         3.1440   -6.9160   -0.3670 c3        1 MOL     -0.595722
     85 O15         2.8930   -5.0440    1.2350 oh        1 MOL     -0.615120
     86 H35         4.0510   -3.0360   -0.8090 hn        1 MOL      0.222215
     87 H36         2.5510   -5.1700   -2.1610 h1        1 MOL      0.172525
     88 H37         1.4540   -5.7580    0.1760 h1        1 MOL     -0.016275
     89 H38         3.2430   -4.1530    1.1270 ho        1 MOL      0.390018
     90 H39         2.9080   -7.3250   -1.3420 hc        1 MOL      0.159407
     91 H40         4.2250   -6.8320   -0.2410 hc        1 MOL      0.159407
     92 H41         2.7730   -7.6090    0.3900 hc        1 MOL      0.159407
     93 N9          0.5750   -3.8180   -2.1230 n         1 MOL     -0.661224
     94 C29        -0.5250   -2.8470   -2.3670 c3        1 MOL      0.026236
     95 C30        -1.7120   -3.4420   -1.6190 c         1 MOL      0.492503
     96 O16        -2.2200   -4.4940   -1.9700 o         1 MOL     -0.560915
     97 C31        -0.9020   -2.5880   -3.8120 c3        1 MOL      0.158118
     98 C32         0.3360   -2.3650   -4.8080 c3        1 MOL      0.209613
     99 C33        -1.8150   -1.3410   -3.9380 c3        1 MOL     -0.463635
    100 C34         0.1990   -2.7570   -6.2830 c3        1 MOL     -0.142382
    101 H42         0.7070   -4.5920   -2.7490 hn        1 MOL      0.339585
    102 H43        -0.3570   -1.8390   -2.0020 h1        1 MOL      0.148259
    103 H44        -1.3640   -3.4590   -4.2940 hc        1 MOL      0.003962
    104 H45         1.1390   -3.0510   -4.5340 hc        1 MOL     -0.046712
    105 H46         0.7610   -1.3610   -4.7800 hc        1 MOL     -0.046712
    106 H47        -2.7380   -1.5200   -3.3760 hc        1 MOL      0.091560
    107 H48        -1.2360   -0.5030   -3.5570 hc        1 MOL      0.091560
    108 H49        -2.0860   -1.1160   -4.9640 hc        1 MOL      0.091560
    109 H50        -0.2300   -3.7540   -6.4060 hc        1 MOL      0.024190
    110 H51        -0.3660   -2.0300   -6.8540 hc        1 MOL      0.024190
    111 H52         1.1900   -2.6460   -6.7230 hc        1 MOL      0.024190
    112 N10        -2.1470   -2.6350   -0.6470 n         1 MOL     -0.049682
    113 C35        -3.3930   -2.9160    0.0820 c3        1 MOL     -0.226503
    114 C36        -4.6410   -2.5060   -0.6610 c         1 MOL      0.424820
    115 O17        -4.6670   -1.6660   -1.4930 o         1 MOL     -0.379725
    116 C37        -3.2690   -2.2900    1.5270 c3        1 MOL      0.208946
    117 C38        -2.3480   -2.9000    2.5520 c3        1 MOL     -0.304163
    118 O18        -2.9040   -0.9120    1.5050 oh        1 MOL     -0.545927
    119 H53        -1.7120   -1.7240   -0.6050 hn        1 MOL      0.132057
    120 H54        -3.3380   -4.0010    0.0880 h1        1 MOL      0.113331
    121 H55        -4.2810   -2.2470    1.9260 h1        1 MOL      0.020237
    122 H56        -2.0880   -0.8250    0.9930 ho        1 MOL      0.362981
    123 H57        -2.4590   -2.2930    3.4440 hc        1 MOL      0.094470
    124 H58        -2.6170   -3.9220    2.7850 hc        1 MOL      0.094470
    125 H59        -1.4000   -2.9170    2.0070 hc        1 MOL      0.094470
    126 N11        -5.8230   -2.9700   -0.2330 n         1 MOL     -0.242106
    127 C39        -7.0920   -2.4660   -0.7160 c3        1 MOL     -0.180142
    128 C40        -7.2750   -0.9770   -0.2180 c         1 MOL      0.449869
    129 O19        -7.9210   -0.2220   -0.9490 o         1 MOL     -0.490661
    130 C41        -8.2330   -3.3110   -0.2310 c3        1 MOL      0.240904
    131 C42        -8.5030   -4.6000   -0.9960 c3        1 MOL     -0.382442
    132 O20        -8.0090   -3.6280    1.1330 oh        1 MOL     -0.645775
    133 H60        -5.7980   -3.7550    0.4090 hn        1 MOL      0.240543
    134 H61        -7.1310   -2.5770   -1.8010 h1        1 MOL      0.156624
    135 H62        -9.0780   -2.6260   -0.1440 h1        1 MOL      0.061173
    136 H63        -8.7100   -4.2100    1.4210 ho        1 MOL      0.418666
    137 H64        -8.7040   -4.4490   -2.0620 hc        1 MOL      0.115187
    138 H65        -7.6620   -5.2640   -0.8010 hc        1 MOL      0.115187
    139 H66        -9.4140   -5.0620   -0.6310 hc        1 MOL      0.115187
    140 N12        -6.6930   -0.5900    0.9530 n         1 MOL     -0.334039
    141 C43        -6.6770    0.7930    1.4230 c3        1 MOL      0.114141
    142 C44        -5.8590    1.7180    0.4760 c         1 MOL      0.261771
    143 O21        -6.4060    2.7870    0.2000 o         1 MOL     -0.509650
    144 C45        -6.0730    0.8370    2.7780 c3        1 MOL     -0.292722
    145 C46        -7.0080    0.4250    3.9060 c3        1 MOL      0.251490
    146 C47        -6.4340    0.8600    5.2540 c3        1 MOL     -0.117561
    147 C48        -7.4560    0.9000    6.4210 c3        1 MOL      0.061228
    148 N13        -6.8580    1.3280    7.6940 n4        1 MOL     -0.291844
    149 H67        -6.2820   -1.3110    1.5190 hn        1 MOL      0.251749
    150 H68        -7.7040    1.1790    1.3560 h1        1 MOL      0.086154
    151 H69        -5.7870    1.8790    2.9050 hc        1 MOL      0.099948
    152 H70        -5.2420    0.1390    2.8250 hc        1 MOL      0.099948
    153 H71        -7.3050   -0.6230    3.8370 hc        1 MOL     -0.038231
    154 H72        -7.9260    0.9810    3.7050 hc        1 MOL     -0.038231
    155 H73        -5.9310    1.8140    5.0880 hc        1 MOL      0.050781
    156 H74        -5.6160    0.1580    5.4350 hc        1 MOL      0.050781
    157 H75        -7.8910   -0.0880    6.5260 hx        1 MOL      0.068526
    158 H76        -8.2910    1.5290    6.0930 hx        1 MOL      0.068526
    159 H77        -7.5350    1.4580    8.4270 hn        1 MOL      0.300790
    160 H78        -6.2010    0.6600    8.0590 hn        1 MOL      0.300790
    161 H79        -6.3320    2.1790    7.5800 hn        1 MOL      0.300790
    162 N14        -4.7780    1.2600   -0.1370 n         1 MOL      0.247805
    163 C49        -4.0070    2.0210   -1.0710 c3        1 MOL     -0.276475
    164 C50        -4.6680    2.1070   -2.4630 c         1 MOL      0.498857
    165 O22        -4.5780    3.1570   -3.0760 o         1 MOL     -0.554769
    166 C51        -2.6370    1.3990   -1.1570 c3        1 MOL      0.048465
    167 C52        -1.7210    1.7900    0.0000 c3        1 MOL     -0.128638
    168 C53        -0.5700    0.8110    0.2670 c         1 MOL      0.766532
    169 O23         0.4940    1.2450    0.7340 o         1 MOL     -0.745641
    170 O24        -0.6090   -0.4580    0.0680 o         1 MOL     -0.745641
    171 H80        -4.3350    0.4680    0.2970 hn        1 MOL     -0.072309
    172 H81        -3.8120    2.9970   -0.6200 h1        1 MOL      0.098063
    173 H82        -2.1620    1.7240   -2.0860 hc        1 MOL      0.036243
    174 H83        -2.7510    0.3200   -1.2460 hc        1 MOL      0.036243
    175 H84        -2.2860    1.7950    0.9330 hc        1 MOL      0.045806
    176 H85        -1.2660    2.7730   -0.1350 hc        1 MOL      0.045806
    177 N15        -5.3770    1.0380   -2.8440 n         1 MOL     -0.113401
    178 C54        -6.1480    1.0670   -4.0770 c3        1 MOL     -0.277404
    179 H86        -5.5340    0.6970   -4.8970 h1        1 MOL      0.104898
    180 H87        -7.0300    0.4350   -3.9690 h1        1 MOL      0.104898
    181 H88        -6.4580    2.0900   -4.2880 h1        1 MOL      0.104898
    182 H89        -5.4980    0.2250   -2.2540 hn        1 MOL      0.158059
    183 Ca1         1.7260   -0.9010    1.4140 Ca        1 MOL      1.735598
    184 O25         1.0100   -3.3020    2.4750 oh        1 MOL     -0.856588
    185 H90         1.2670   -3.6110    3.3420 ho        1 MOL      0.395689
    186 H91         1.3470   -3.9780    1.8790 ho        1 MOL      0.395689
    187 O26        -0.0120   -0.1210    3.4570 oh        1 MOL     -0.856588
    188 H92        -0.6210   -0.2980    4.1750 ho        1 MOL      0.395689
    189 H93         0.7380    0.2940    3.8860 ho        1 MOL      0.395689
@<TRIPOS>BOND
     1    1    2 1   
     2    1    4 1   
     3    1    5 1   
     4    1    6 1   
     5    2    3 2   
     6    2    7 1   
     7    7    8 1   
     8    7   15 1   
     9    8    9 1   
    10    8   11 1   
    11    8   16 1   
    12    9   10 2   
    13    9   19 1   
    14   11   12 1   
    15   11   17 1   
    16   11   18 1   
    17   12   13 1   
    18   12   14 1   
    19   19   20 1   
    20   19   28 1   
    21   20   21 1   
    22   20   23 1   
    23   20   29 1   
    24   21   22 2   
    25   21   41 1   
    26   23   24 1   
    27   23   30 1   
    28   23   31 1   
    29   24   25 1   
    30   24   32 1   
    31   24   33 1   
    32   25   26 1   
    33   25   34 1   
    34   25   35 1   
    35   26   27 1   
    36   26   36 1   
    37   26   37 1   
    38   27   38 1   
    39   27   39 1   
    40   27   40 1   
    41   41   42 1   
    42   41   49 1   
    43   42   43 1   
    44   42   45 1   
    45   42   50 1   
    46   43   44 2   
    47   43   53 1   
    48   45   46 1   
    49   45   51 1   
    50   45   52 1   
    51   46   47 1   
    52   46   48 1   
    53   53   54 1   
    54   53   57 1   
    55   54   55 1   
    56   54   58 1   
    57   54   59 1   
    58   55   56 2   
    59   55   60 1   
    60   60   61 1   
    61   60   68 1   
    62   61   62 1   
    63   61   64 1   
    64   61   69 1   
    65   62   63 2   
    66   62   72 1   
    67   64   65 1   
    68   64   70 1   
    69   64   71 1   
    70   65   66 1   
    71   65   67 1   
    72   72   73 1   
    73   72   76 1   
    74   73   74 1   
    75   73   77 1   
    76   73   78 1   
    77   74   75 2   
    78   74   79 1   
    79   79   80 1   
    80   79   86 1   
    81   80   81 1   
    82   80   83 1   
    83   80   87 1   
    84   81   82 2   
    85   81   93 1   
    86   83   84 1   
    87   83   85 1   
    88   83   88 1   
    89   84   90 1   
    90   84   91 1   
    91   84   92 1   
    92   85   89 1   
    93   93   94 1   
    94   93  101 1   
    95   94   95 1   
    96   94   97 1   
    97   94  102 1   
    98   95   96 2   
    99   95  112 1   
   100   97   98 1   
   101   97   99 1   
   102   97  103 1   
   103   98  100 1   
   104   98  104 1   
   105   98  105 1   
   106   99  106 1   
   107   99  107 1   
   108   99  108 1   
   109  100  109 1   
   110  100  110 1   
   111  100  111 1   
   112  112  113 1   
   113  112  119 1   
   114  113  114 1   
   115  113  116 1   
   116  113  120 1   
   117  114  115 2   
   118  114  126 1   
   119  116  117 1   
   120  116  118 1   
   121  116  121 1   
   122  117  123 1   
   123  117  124 1   
   124  117  125 1   
   125  118  122 1   
   126  126  127 1   
   127  126  133 1   
   128  127  128 1   
   129  127  130 1   
   130  127  134 1   
   131  128  129 2   
   132  128  140 1   
   133  130  131 1   
   134  130  132 1   
   135  130  135 1   
   136  131  137 1   
   137  131  138 1   
   138  131  139 1   
   139  132  136 1   
   140  140  141 1   
   141  140  149 1   
   142  141  142 1   
   143  141  144 1   
   144  141  150 1   
   145  142  143 2   
   146  142  162 1   
   147  144  145 1   
   148  144  151 1   
   149  144  152 1   
   150  145  146 1   
   151  145  153 1   
   152  145  154 1   
   153  146  147 1   
   154  146  155 1   
   155  146  156 1   
   156  147  148 1   
   157  147  157 1   
   158  147  158 1   
   159  148  159 1   
   160  148  160 1   
   161  148  161 1   
   162  162  163 1   
   163  162  171 1   
   164  163  164 1   
   165  163  166 1   
   166  163  172 1   
   167  164  165 2   
   168  164  177 1   
   169  166  167 1   
   170  166  173 1   
   171  166  174 1   
   172  167  168 1   
   173  167  175 1   
   174  167  176 1   
   175  168  169 1   
   176  168  170 1   
   177  177  178 1   
   178  177  182 1   
   179  178  179 1   
   180  178  180 1   
   181  178  181 1   
   182  184  185 1   
   183  184  186 1   
   184  187  188 1   
   185  187  189 1   
@<TRIPOS>SUBSTRUCTURE
     1 MOL         1 TEMP              0 ****  ****    0 ROOT
