@<TRIPOS>MOLECULE
MOL
  179   176     1     0     0
SMALL
resp


@<TRIPOS>ATOM
      1 C1          1.4950    3.2310    5.9750 c3        1 MOL     -0.260988
      2 C2          1.1040    2.7250    4.6110 c         1 MOL      0.726592
      3 O1          1.9420    2.4380    3.7660 o         1 MOL     -0.618012
      4 H1          0.9050    2.7170    6.7350 hc        1 MOL      0.060428
      5 H2          2.5540    3.0380    6.1450 hc        1 MOL      0.060428
      6 H3          1.3060    4.3030    6.0330 hc        1 MOL      0.060428
      7 N1         -0.1870    2.5750    4.3830 n         1 MOL     -0.492445
      8 C3         -0.6940    2.3630    3.0080 c3        1 MOL      0.147039
      9 C4         -0.5850    3.6900    2.2580 c         1 MOL      0.348884
     10 O2         -1.3490    4.6160    2.7100 o         1 MOL     -0.550336
     11 C5         -2.1680    1.7900    2.9880 c3        1 MOL     -0.236551
     12 C6         -2.8740    1.5950    1.6170 c         1 MOL      0.911880
     13 O3         -2.2280    1.6290    0.5850 o         1 MOL     -0.735864
     14 O4         -4.0770    1.3410    1.6330 o         1 MOL     -0.735864
     15 H4         -0.8570    2.7080    5.1260 hn        1 MOL      0.300568
     16 H5          0.0140    1.6920    2.5090 h1        1 MOL      0.019984
     17 H6         -2.7550    2.4920    3.5820 hc        1 MOL      0.040445
     18 H7         -2.0880    0.8030    3.4660 hc        1 MOL      0.040445
     19 N2          0.2490    3.8660    1.2360 n         1 MOL     -0.110756
     20 C7          0.5700    5.1580    0.5330 c3        1 MOL     -0.235495
     21 C8         -0.4150    5.6480   -0.6000 c         1 MOL      0.532127
     22 O5         -0.3210    6.8310   -0.9760 o         1 MOL     -0.578253
     23 C9          2.0310    5.1350    0.0370 c3        1 MOL      0.010856
     24 C10         2.5490    6.5550   -0.3150 c3        1 MOL      0.123264
     25 C11         4.1270    6.5520   -0.3120 c3        1 MOL     -0.016436
     26 C12         4.6010    7.8850   -0.9710 c3        1 MOL     -0.040297
     27 N3          4.5180    9.1520   -0.1140 n4        1 MOL     -0.365198
     28 H8          0.7790    3.0710    0.9090 hn        1 MOL      0.219096
     29 H9          0.6110    5.8790    1.3480 h1        1 MOL      0.135948
     30 H10         2.2410    4.4980   -0.8270 hc        1 MOL      0.018962
     31 H11         2.6310    4.6550    0.8080 hc        1 MOL      0.018962
     32 H12         2.2180    7.2120    0.4830 hc        1 MOL     -0.015116
     33 H13         2.1380    6.9190   -1.2560 hc        1 MOL     -0.015116
     34 H14         4.4940    5.6960   -0.8910 hc        1 MOL      0.039877
     35 H15         4.4870    6.3990    0.7040 hc        1 MOL      0.039877
     36 H16         4.1570    7.9950   -1.9550 hx        1 MOL      0.101329
     37 H17         5.6370    7.7260   -1.2530 hx        1 MOL      0.101329
     38 H18         3.5700    9.3280    0.1920 hn        1 MOL      0.331318
     39 H19         5.2110    9.2070    0.6170 hn        1 MOL      0.331318
     40 H20         4.6910    9.9700   -0.6790 hn        1 MOL      0.331318
     41 N4         -1.4070    4.8550   -1.0670 n         1 MOL     -0.292580
     42 C13        -2.5550    5.3070   -1.9410 c3        1 MOL      0.118855
     43 C14        -3.9050    5.0230   -1.2860 c         1 MOL      0.470843
     44 O6         -4.8580    5.6690   -1.6680 o         1 MOL     -0.536894
     45 C15        -2.3640    4.5260   -3.2960 c3        1 MOL     -0.169139
     46 C16        -2.5130    3.0230   -3.2910 c         1 MOL      0.770494
     47 O7         -2.5190    2.3320   -4.3810 o         1 MOL     -0.757510
     48 O8         -2.3570    2.4180   -2.2320 o         1 MOL     -0.757510
     49 H21        -1.4250    3.9510   -0.6250 hn        1 MOL      0.108226
     50 H22        -2.5410    6.3710   -2.1480 h1        1 MOL      0.082082
     51 H23        -1.3160    4.6880   -3.5740 hc        1 MOL      0.044857
     52 H24        -3.0040    4.9950   -4.0350 hc        1 MOL      0.044857
     53 N5         -4.1100    4.1010   -0.3100 n         1 MOL     -0.331839
     54 C17        -5.4630    3.7860    0.3370 c3        1 MOL     -0.121080
     55 C18        -6.2580    2.5960   -0.2850 c         1 MOL      0.470948
     56 O9         -7.4900    2.4780   -0.1100 o         1 MOL     -0.573248
     57 H25        -3.3420    3.4970   -0.0550 hn        1 MOL      0.255054
     58 H26        -6.0870    4.6770    0.2680 h1        1 MOL      0.111620
     59 H27        -5.2810    3.6140    1.3950 h1        1 MOL      0.111620
     60 N6         -5.6290    1.7400   -1.0100 n         1 MOL     -0.067196
     61 C19        -6.2370    0.5560   -1.5430 c3        1 MOL     -0.228304
     62 C20        -6.5370   -0.6320   -0.5570 c         1 MOL      0.311317
     63 O10        -7.2850   -1.5740   -0.8520 o         1 MOL     -0.429174
     64 C21        -5.5150    0.1710   -2.8470 c3        1 MOL     -0.035093
     65 C22        -4.2230   -0.4570   -2.7280 c         1 MOL      0.631576
     66 N7         -3.6190   -0.9850   -3.7110 n         1 MOL     -0.677554
     67 O11        -3.5150   -0.3670   -1.6850 o         1 MOL     -0.525429
     68 H28        -4.6230    1.7030   -0.9760 hn        1 MOL      0.103549
     69 H29        -7.2690    0.7830   -1.7780 h1        1 MOL      0.164936
     70 H30        -5.5910    0.9440   -3.6120 hc        1 MOL      0.044909
     71 H31        -6.0570   -0.6640   -3.2820 hc        1 MOL      0.044909
     72 H32        -4.1630   -1.2550   -4.5190 hn        1 MOL      0.326722
     73 H33        -2.7420   -1.4450   -3.5400 hn        1 MOL      0.326722
     74 N8         -6.0340   -0.4640    0.7120 n         1 MOL     -0.049858
     75 C23        -6.3150   -1.2920    1.8850 c3        1 MOL     -0.375247
     76 C24        -5.2490   -2.4230    2.0480 c         1 MOL      0.644353
     77 O12        -5.4150   -3.4020    2.7990 o         1 MOL     -0.568756
     78 H34        -5.3140    0.2370    0.8390 hn        1 MOL      0.230252
     79 H35        -7.3240   -1.6980    1.8080 h1        1 MOL      0.158213
     80 H36        -6.2320   -0.6080    2.7160 h1        1 MOL      0.158213
     81 N9         -4.1670   -2.3120    1.2350 n         1 MOL     -0.397469
     82 C25        -3.1400   -3.2970    1.1180 c3        1 MOL      0.100444
     83 C26        -1.7740   -2.6080    0.9700 c         1 MOL      0.730262
     84 O13        -1.6260   -1.5040    0.3520 o         1 MOL     -0.730183
     85 C27        -3.5030   -4.3030   -0.0230 c3        1 MOL      0.029790
     86 C28        -4.8220   -5.1030    0.0550 ca        1 MOL     -0.102064
     87 C29        -6.0340   -4.6320   -0.5340 ca        1 MOL      0.040037
     88 C30        -4.8390   -6.4040    0.5810 ca        1 MOL      0.040037
     89 C31        -7.1800   -5.4010   -0.6970 ca        1 MOL     -0.476685
     90 C32        -6.0160   -7.2040    0.4690 ca        1 MOL     -0.476685
     91 C33        -7.2070   -6.6390   -0.0710 ca        1 MOL      0.545108
     92 O14        -8.3700   -7.4030   -0.0810 oh        1 MOL     -0.499281
     93 H37        -3.9740   -1.4600    0.7360 hn        1 MOL      0.178145
     94 H38        -3.1000   -3.8350    2.0600 h1        1 MOL      0.028013
     95 H39        -2.8100   -5.1350   -0.0590 hc        1 MOL     -0.008932
     96 H40        -3.4650   -3.8030   -0.9880 hc        1 MOL     -0.008932
     97 H41        -6.0250   -3.6480   -0.9670 ha        1 MOL      0.082610
     98 H42        -3.9700   -6.8110    1.0630 ha        1 MOL      0.082610
     99 H43        -7.9900   -5.0470   -1.3140 ha        1 MOL      0.193248
    100 H44        -6.1870   -8.1130    1.0060 ha        1 MOL      0.193248
    101 H45        -8.2220   -8.2800    0.2910 ho        1 MOL      0.327229
    102 N10        -0.7200   -3.2530    1.4920 n         1 MOL     -0.668095
    103 C34         0.6360   -2.7640    1.3530 c3        1 MOL      0.063170
    104 C35         1.6170   -3.8150    0.7410 c         1 MOL      0.639985
    105 O15         1.6290   -4.9360    1.2060 o         1 MOL     -0.550043
    106 C36         1.1410   -2.2390    2.7720 c3        1 MOL      0.124740
    107 C37         0.1960   -1.3770    3.6040 c3        1 MOL      0.154539
    108 C38         2.4780   -1.4920    2.6120 c3        1 MOL     -0.410598
    109 C39         0.6640   -0.9830    5.0500 c3        1 MOL     -0.405879
    110 H46        -0.9330   -4.0310    2.0950 hn        1 MOL      0.355344
    111 H47         0.7370   -1.8520    0.7600 h1        1 MOL      0.058634
    112 H48         1.4380   -3.1720    3.2440 hc        1 MOL     -0.017969
    113 H49        -0.7620   -1.8960    3.6220 hc        1 MOL     -0.006048
    114 H50         0.0520   -0.4380    3.0590 hc        1 MOL     -0.006048
    115 H51         3.0030   -1.8600    1.7340 hc        1 MOL      0.116848
    116 H52         2.2530   -0.4390    2.4640 hc        1 MOL      0.116848
    117 H53         3.1660   -1.5420    3.4650 hc        1 MOL      0.116848
    118 H54         1.4780   -0.2770    4.9090 hc        1 MOL      0.098818
    119 H55        -0.0980   -0.3950    5.5700 hc        1 MOL      0.098818
    120 H56         0.9790   -1.8080    5.6830 hc        1 MOL      0.098818
    121 N11         2.3640   -3.4020   -0.2570 n         1 MOL     -0.461908
    122 C40         3.3300   -4.1450   -0.9190 c3        1 MOL      0.187382
    123 C41         4.7740   -4.0120   -0.3740 c         1 MOL      0.467666
    124 O16         5.0600   -3.0200    0.3270 o         1 MOL     -0.385807
    125 C42         3.3700   -3.8880   -2.4110 c3        1 MOL     -0.015177
    126 O17         4.2130   -2.7370   -2.7320 oh        1 MOL     -0.543404
    127 H57         2.3660   -2.3940   -0.3550 hn        1 MOL      0.257385
    128 H58         3.0400   -5.1910   -0.8250 h1        1 MOL      0.020237
    129 H59         2.3390   -3.7350   -2.7410 h1        1 MOL      0.063340
    130 H60         3.8070   -4.7460   -2.9120 h1        1 MOL      0.063340
    131 H61         3.6170   -2.1750   -3.2330 ho        1 MOL      0.397490
    132 N12         5.7170   -4.8470   -0.8390 n         1 MOL     -0.567796
    133 C43         7.0390   -4.8600   -0.2590 c3        1 MOL      0.314017
    134 C44         7.8640   -3.5690   -0.5370 c         1 MOL      0.396087
    135 O18         8.3440   -2.9640    0.4440 o         1 MOL     -0.523345
    136 C45         7.8700   -5.8980   -0.8340 c3        1 MOL     -0.392540
    137 H62         5.5640   -5.4340   -1.6450 hn        1 MOL      0.339551
    138 H63         7.0160   -5.0550    0.8100 h1        1 MOL      0.064423
    139 H64         7.4590   -6.8620   -0.5220 hc        1 MOL      0.100265
    140 H65         7.8550   -5.8170   -1.9210 hc        1 MOL      0.100265
    141 H66         8.8930   -5.7990   -0.4740 hc        1 MOL      0.100265
    142 N13         7.7190   -3.0100   -1.7410 n         1 MOL     -0.357940
    143 C46         8.4010   -1.7730   -2.1590 c3        1 MOL      0.095553
    144 C47         7.7150   -0.5540   -1.5440 c         1 MOL      0.387831
    145 O19         8.3290    0.5290   -1.4940 o         1 MOL     -0.521180
    146 C48         8.3960   -1.8020   -3.6980 c3        1 MOL     -0.134867
    147 H67         7.1890   -3.4650   -2.4660 hn        1 MOL      0.292300
    148 H68         9.4260   -1.8440   -1.7870 h1        1 MOL      0.106907
    149 H69         7.4240   -1.4870   -4.0790 hc        1 MOL      0.043178
    150 H70         9.2100   -1.1230   -3.9810 hc        1 MOL      0.043178
    151 H71         8.6430   -2.7870   -4.0980 hc        1 MOL      0.043178
    152 N14         6.4240   -0.6530   -1.0980 n         1 MOL     -0.076829
    153 C49         5.6890    0.3090   -0.3300 c3        1 MOL     -0.282697
    154 C50         6.0350    0.2660    1.1520 c         1 MOL      0.545711
    155 O20         5.8590    1.2930    1.7260 o         1 MOL     -0.550426
    156 C51         4.2010    0.0240   -0.6090 c3        1 MOL     -0.060848
    157 C52         3.1920    1.1360   -0.1660 c3        1 MOL      0.014884
    158 C53         1.7470    0.8300   -0.5200 c         1 MOL      0.588215
    159 O21         1.5290   -0.1840   -1.1510 o         1 MOL     -0.724069
    160 O22         0.8350    1.4670   -0.0540 o         1 MOL     -0.724069
    161 H72         6.0370   -1.5880   -1.0550 hn        1 MOL     -0.031002
    162 H73         6.0370    1.2870   -0.6790 h1        1 MOL      0.159099
    163 H74         3.9580   -0.9890   -0.2740 hc        1 MOL      0.046568
    164 H75         3.9440    0.0210   -1.6750 hc        1 MOL      0.046568
    165 H76         3.5610    2.1290   -0.4260 hc        1 MOL      0.047527
    166 H77         3.1620    1.1220    0.9270 hc        1 MOL      0.047527
    167 N15         6.4860   -0.8740    1.7420 n         1 MOL     -0.147859
    168 C54         6.8180   -0.9410    3.1440 c3        1 MOL     -0.186068
    169 H78         6.0290   -1.4710    3.6780 h1        1 MOL      0.084157
    170 H79         7.7610   -1.4720    3.2700 h1        1 MOL      0.084157
    171 H80         6.9130    0.0680    3.5450 h1        1 MOL      0.084157
    172 H81         6.3950   -1.7260    1.2050 hn        1 MOL      0.184065
    173 Ca1        -1.0580    0.4000   -1.3590 Ca        1 MOL      1.798453
    174 O23        -0.4370    0.5830   -3.9570 oh        1 MOL     -0.872769
    175 H82        -1.1550    1.0100   -4.4230 ho        1 MOL      0.421118
    176 H83         0.1770    0.3190   -4.6410 ho        1 MOL      0.421118
    177 O24        -0.9100   -2.2030   -2.8150 oh        1 MOL     -0.872769
    178 H84        -0.7000   -3.0660   -2.4510 ho        1 MOL      0.421118
    179 H85        -0.6750   -2.2800   -3.7430 ho        1 MOL      0.421118
@<TRIPOS>BOND
     1    1    2 1   
     2    1    4 1   
     3    1    5 1   
     4    1    6 1   
     5    2    3 2   
     6    2    7 1   
     7    7    8 1   
     8    7   15 1   
     9    8    9 1   
    10    8   11 1   
    11    8   16 1   
    12    9   10 2   
    13    9   19 1   
    14   11   12 1   
    15   11   17 1   
    16   11   18 1   
    17   12   13 1   
    18   12   14 1   
    19   19   20 1   
    20   19   28 1   
    21   20   21 1   
    22   20   23 1   
    23   20   29 1   
    24   21   22 2   
    25   21   41 1   
    26   23   24 1   
    27   23   30 1   
    28   23   31 1   
    29   24   25 1   
    30   24   32 1   
    31   24   33 1   
    32   25   26 1   
    33   25   34 1   
    34   25   35 1   
    35   26   27 1   
    36   26   36 1   
    37   26   37 1   
    38   27   38 1   
    39   27   39 1   
    40   27   40 1   
    41   41   42 1   
    42   41   49 1   
    43   42   43 1   
    44   42   45 1   
    45   42   50 1   
    46   43   44 2   
    47   43   53 1   
    48   45   46 1   
    49   45   51 1   
    50   45   52 1   
    51   46   47 1   
    52   46   48 1   
    53   53   54 1   
    54   53   57 1   
    55   54   55 1   
    56   54   58 1   
    57   54   59 1   
    58   55   56 2   
    59   55   60 1   
    60   60   61 1   
    61   60   68 1   
    62   61   62 1   
    63   61   64 1   
    64   61   69 1   
    65   62   63 2   
    66   62   74 1   
    67   64   65 1   
    68   64   70 1   
    69   64   71 1   
    70   65   66 1   
    71   65   67 2   
    72   66   72 1   
    73   66   73 1   
    74   74   75 1   
    75   74   78 1   
    76   75   76 1   
    77   75   79 1   
    78   75   80 1   
    79   76   77 2   
    80   76   81 1   
    81   81   82 1   
    82   81   93 1   
    83   82   83 1   
    84   82   85 1   
    85   82   94 1   
    86   83   84 2   
    87   83  102 1   
    88   85   86 1   
    89   85   95 1   
    90   85   96 1   
    91   86   87 ar  
    92   86   88 ar  
    93   87   89 ar  
    94   87   97 1   
    95   88   90 ar  
    96   88   98 1   
    97   89   91 ar  
    98   89   99 1   
    99   90   91 ar  
   100   90  100 1   
   101   91   92 1   
   102   92  101 1   
   103  102  103 1   
   104  102  110 1   
   105  103  104 1   
   106  103  106 1   
   107  103  111 1   
   108  104  105 2   
   109  104  121 1   
   110  106  107 1   
   111  106  108 1   
   112  106  112 1   
   113  107  109 1   
   114  107  113 1   
   115  107  114 1   
   116  108  115 1   
   117  108  116 1   
   118  108  117 1   
   119  109  118 1   
   120  109  119 1   
   121  109  120 1   
   122  121  122 1   
   123  121  127 1   
   124  122  123 1   
   125  122  125 1   
   126  122  128 1   
   127  123  124 2   
   128  123  132 1   
   129  125  126 1   
   130  125  129 1   
   131  125  130 1   
   132  126  131 1   
   133  132  133 1   
   134  132  137 1   
   135  133  134 1   
   136  133  136 1   
   137  133  138 1   
   138  134  135 2   
   139  134  142 1   
   140  136  139 1   
   141  136  140 1   
   142  136  141 1   
   143  142  143 1   
   144  142  147 1   
   145  143  144 1   
   146  143  146 1   
   147  143  148 1   
   148  144  145 2   
   149  144  152 1   
   150  146  149 1   
   151  146  150 1   
   152  146  151 1   
   153  152  153 1   
   154  152  161 1   
   155  153  154 1   
   156  153  156 1   
   157  153  162 1   
   158  154  155 2   
   159  154  167 1   
   160  156  157 1   
   161  156  163 1   
   162  156  164 1   
   163  157  158 1   
   164  157  165 1   
   165  157  166 1   
   166  158  159 1   
   167  158  160 1   
   168  167  168 1   
   169  167  172 1   
   170  168  169 1   
   171  168  170 1   
   172  168  171 1   
   173  174  175 1   
   174  174  176 1   
   175  177  178 1   
   176  177  179 1   
@<TRIPOS>SUBSTRUCTURE
     1 MOL         1 TEMP              0 ****  ****    0 ROOT
