@<TRIPOS>MOLECULE
MOL
  175   173     1     0     0
SMALL
resp


@<TRIPOS>ATOM
      1 C1          0.5980    3.8470    5.4590 c3        1 MOL     -0.419682
      2 C2         -0.0480    3.8840    4.0490 c         1 MOL      0.697030
      3 O1          0.6110    3.9690    3.0300 o         1 MOL     -0.535565
      4 H1         -0.0830    4.2960    6.1820 hc        1 MOL      0.097639
      5 H2          0.7980    2.8140    5.7410 hc        1 MOL      0.097639
      6 H3          1.5320    4.4080    5.4460 hc        1 MOL      0.097639
      7 N1         -1.3230    3.6510    4.0370 n         1 MOL     -0.579509
      8 C3         -2.0540    3.3040    2.7700 c3        1 MOL      0.058878
      9 C4         -2.0100    4.5730    1.8140 c         1 MOL      0.550166
     10 O2         -2.0740    5.7260    2.2500 o         1 MOL     -0.581502
     11 C5         -3.5060    2.9920    3.1090 c3        1 MOL     -0.295473
     12 C6         -4.2370    2.3460    1.8960 c         1 MOL      0.919752
     13 O3         -5.3430    1.9160    2.1480 o         1 MOL     -0.758368
     14 O4         -3.7840    2.2280    0.8160 o         1 MOL     -0.758368
     15 H4         -1.6850    3.5000    4.9680 hn        1 MOL      0.327364
     16 H5         -1.5760    2.5520    2.1520 h1        1 MOL      0.102418
     17 H6         -4.0770    3.8660    3.4160 hc        1 MOL      0.059350
     18 H7         -3.4960    2.2850    3.9240 hc        1 MOL      0.059350
     19 N2         -1.8680    4.4030    0.5350 n         1 MOL     -0.512798
     20 C7         -1.9850    5.4250   -0.4900 c3        1 MOL      0.376020
     21 C8         -3.1690    5.1750   -1.4530 c         1 MOL      0.414955
     22 O5         -3.3350    6.0630   -2.3380 o         1 MOL     -0.555778
     23 C9         -0.6750    5.5820   -1.3430 c3        1 MOL     -0.308353
     24 H8         -1.7420    3.4890    0.1310 hn        1 MOL      0.390478
     25 H9         -2.1860    6.4060   -0.0370 h1        1 MOL     -0.012494
     26 H10        -0.8310    6.3440   -2.1020 hc        1 MOL      0.076379
     27 H11         0.2370    5.7920   -0.7800 hc        1 MOL      0.076379
     28 H12        -0.4850    4.6350   -1.8420 hc        1 MOL      0.076379
     29 N3         -3.9530    4.0450   -1.3480 n         1 MOL     -0.443824
     30 C10        -4.8570    3.6900   -2.5380 c3        1 MOL      0.040435
     31 C11        -6.0480    2.8510   -2.0950 c         1 MOL      0.382777
     32 O6         -6.9720    2.6670   -2.9290 o         1 MOL     -0.512179
     33 C12        -4.0700    2.9400   -3.6300 c3        1 MOL     -0.033108
     34 C13        -3.0480    1.9020   -3.1680 c         1 MOL      0.722676
     35 O7         -2.1760    1.6930   -4.0310 o         1 MOL     -0.724438
     36 O8         -2.9740    1.4010   -2.0780 o         1 MOL     -0.724438
     37 H13        -3.6350    3.3340   -0.7130 hn        1 MOL      0.225133
     38 H14        -5.2960    4.5380   -3.0550 h1        1 MOL      0.078255
     39 H15        -3.4280    3.6650   -4.1290 hc        1 MOL      0.015813
     40 H16        -4.6840    2.5240   -4.4300 hc        1 MOL      0.015813
     41 N4         -6.1180    2.2330   -0.8550 n         1 MOL     -0.178676
     42 C14        -7.2830    1.3990   -0.4010 c3        1 MOL     -0.060056
     43 C15        -7.5340    0.1470   -1.2530 c         1 MOL      0.392393
     44 O9         -8.4370    0.0200   -2.0730 o         1 MOL     -0.526970
     45 H17        -5.4160    2.4950   -0.1790 hn        1 MOL      0.177741
     46 H18        -8.1110    2.1140   -0.4890 h1        1 MOL      0.074349
     47 H19        -7.4250    1.1230    0.6430 h1        1 MOL      0.074349
     48 N5         -6.6500   -0.7970   -1.1130 n         1 MOL     -0.236628
     49 C16        -6.6090   -2.0940   -1.7860 c3        1 MOL      0.069278
     50 C17        -6.4330   -3.3150   -0.8880 c         1 MOL      0.478916
     51 O10        -6.1640   -4.4060   -1.3360 o         1 MOL     -0.506621
     52 C18        -5.5480   -1.9490   -2.8370 c3        1 MOL     -0.014660
     53 C19        -4.0870   -2.0000   -2.3780 c         1 MOL      0.288392
     54 N6         -3.1430   -1.9380   -3.2840 n         1 MOL     -0.424345
     55 O11        -3.7770   -2.1540   -1.1680 o         1 MOL     -0.522211
     56 H20        -6.1220   -0.7650   -0.2560 hn        1 MOL      0.041403
     57 H21        -7.5600   -2.2110   -2.2860 h1        1 MOL      0.070328
     58 H22        -5.6520   -1.0110   -3.3860 hc        1 MOL      0.051967
     59 H23        -5.7160   -2.7810   -3.5240 hc        1 MOL      0.051967
     60 H24        -3.4770   -1.7340   -4.2120 hn        1 MOL      0.293898
     61 H25        -2.1820   -2.0080   -3.0030 hn        1 MOL      0.293898
     62 N7         -6.4730   -3.1240    0.4350 n         1 MOL     -0.404007
     63 C20        -6.3410   -4.1100    1.4810 c3        1 MOL     -0.162712
     64 C21        -4.9100   -4.5810    1.7980 c         1 MOL      0.465436
     65 O12        -4.7580   -5.3840    2.7270 o         1 MOL     -0.567546
     66 H26        -6.7280   -2.2010    0.7350 hn        1 MOL      0.301987
     67 H27        -6.7670   -5.0530    1.1480 h1        1 MOL      0.122560
     68 H28        -6.8830   -3.7860    2.3620 h1        1 MOL      0.122560
     69 N8         -3.8610   -4.2040    1.0030 n         1 MOL      0.060751
     70 C22        -2.5020   -4.7330    1.0100 c3        1 MOL     -0.489048
     71 C23        -1.5520   -3.5860    1.2520 c         1 MOL      0.690555
     72 O13        -1.7010   -2.4590    0.8050 o         1 MOL     -0.691287
     73 C24        -2.2230   -5.5290   -0.3160 c3        1 MOL      0.597200
     74 C25        -3.1120   -6.7910   -0.3230 c3        1 MOL     -0.632964
     75 O14        -2.6470   -4.8840   -1.5390 oh        1 MOL     -0.636078
     76 H29        -4.0300   -3.3680    0.4520 hn        1 MOL      0.023245
     77 H30        -2.2630   -5.4370    1.8030 h1        1 MOL      0.146793
     78 H31        -1.1470   -5.7020   -0.3750 h1        1 MOL     -0.012900
     79 H32        -3.1400   -4.1200   -1.2300 ho        1 MOL      0.460892
     80 H33        -4.1560   -6.5020   -0.4490 hc        1 MOL      0.151566
     81 H34        -2.7800   -7.4370   -1.1440 hc        1 MOL      0.151566
     82 H35        -3.0660   -7.2800    0.6450 hc        1 MOL      0.151566
     83 N9         -0.4960   -3.8270    2.0250 n         1 MOL     -0.491987
     84 C26         0.7260   -2.9270    2.1440 c3        1 MOL      0.062468
     85 C27         1.4450   -3.0210    0.7340 c         1 MOL      0.531505
     86 O15         1.7760   -4.1030    0.2830 o         1 MOL     -0.593148
     87 C28         1.6140   -3.1920    3.3640 c3        1 MOL     -0.003985
     88 C29         1.1010   -2.3300    4.5280 c3        1 MOL      0.229765
     89 C30         3.0610   -2.6730    3.1520 c3        1 MOL     -0.136663
     90 C31         1.6420   -2.6720    5.9130 c3        1 MOL     -0.333097
     91 H36        -0.4580   -4.7920    2.3450 hn        1 MOL      0.270118
     92 H37         0.3160   -1.9200    2.2380 h1        1 MOL      0.008156
     93 H38         1.5320   -4.2510    3.5710 hc        1 MOL      0.033191
     94 H39         0.0190   -2.4650    4.5670 hc        1 MOL     -0.043851
     95 H40         1.2910   -1.2780    4.2920 hc        1 MOL     -0.043851
     96 H41         3.6550   -2.7570    4.0600 hc        1 MOL      0.022522
     97 H42         3.6290   -3.2610    2.4270 hc        1 MOL      0.022522
     98 H43         3.0180   -1.6400    2.8120 hc        1 MOL      0.022522
     99 H44         1.5970   -3.7470    6.0990 hc        1 MOL      0.072646
    100 H45         2.6830   -2.3270    5.8840 hc        1 MOL      0.072646
    101 H46         1.0940   -2.0240    6.5980 hc        1 MOL      0.072646
    102 N10         1.8110   -1.8950    0.1160 n         1 MOL     -0.131399
    103 C32         2.6100   -1.8320   -1.1040 c3        1 MOL     -0.028939
    104 C33         4.0630   -1.3190   -0.8620 c         1 MOL      0.316283
    105 O16         4.3330   -0.9580    0.2820 o         1 MOL     -0.358887
    106 C34         1.8710   -0.9730   -2.1600 c3        1 MOL     -0.055546
    107 C35         0.4260   -1.3620   -2.4810 c         1 MOL      0.616331
    108 O17        -0.5500   -1.1080   -1.7060 o         1 MOL     -0.653596
    109 O18         0.2750   -1.9510   -3.5540 o         1 MOL     -0.653596
    110 H47         1.5490   -0.9870    0.4740 hn        1 MOL      0.307350
    111 H48         2.6910   -2.8110   -1.5560 h1        1 MOL      0.076047
    112 H49         2.4440   -0.9410   -3.0830 hc        1 MOL      0.009135
    113 H50         1.8600    0.0580   -1.7870 hc        1 MOL      0.009135
    114 N11         5.0490   -1.4620   -1.7470 n         1 MOL     -0.460468
    115 C36         6.4370   -1.5000   -1.4150 c3        1 MOL      0.295620
    116 C37         6.8530   -0.0380   -1.0730 c         1 MOL      0.361762
    117 O19         7.4890    0.2190   -0.0140 o         1 MOL     -0.483127
    118 C38         7.2350   -2.2650   -2.4870 c3        1 MOL     -0.215627
    119 C39         8.6870   -2.0670   -2.1450 ca        1 MOL      0.097432
    120 C40         9.5580   -1.3020   -2.9540 ca        1 MOL     -0.191633
    121 C41         9.2390   -2.6230   -0.9540 ca        1 MOL     -0.191633
    122 C42        10.8740   -1.1210   -2.5800 ca        1 MOL     -0.087561
    123 C43        10.6280   -2.5300   -0.7220 ca        1 MOL     -0.087561
    124 C44        11.4550   -1.7230   -1.4670 ca        1 MOL     -0.114180
    125 H51         4.8180   -1.7920   -2.6730 hn        1 MOL      0.264656
    126 H52         6.5070   -2.0730   -0.4950 h1        1 MOL      0.064032
    127 H53         7.0470   -1.8940   -3.4890 hc        1 MOL      0.077250
    128 H54         6.9780   -3.3310   -2.4500 hc        1 MOL      0.077250
    129 H55         9.1120   -0.8430   -3.8210 ha        1 MOL      0.122717
    130 H56         8.6070   -3.2080   -0.3110 ha        1 MOL      0.122717
    131 H57        11.4710   -0.4560   -3.1810 ha        1 MOL      0.095794
    132 H58        11.0650   -3.0110    0.1420 ha        1 MOL      0.095794
    133 H59        12.4880   -1.5680   -1.1880 ha        1 MOL      0.107884
    134 N12         6.4440    0.9880   -1.8490 n         1 MOL     -0.037974
    135 C45         6.4530    2.3810   -1.4610 c3        1 MOL      0.008924
    136 C46         5.8590    2.7800   -0.1400 c         1 MOL      0.297064
    137 O20         6.4220    3.5160    0.6760 o         1 MOL     -0.461737
    138 C47         5.7420    3.0780   -2.6280 c3        1 MOL     -0.036883
    139 C48         6.2030    2.2610   -3.8570 c3        1 MOL      0.041610
    140 C49         6.0380    0.8610   -3.2440 c3        1 MOL     -0.196130
    141 H60         7.4940    2.6890   -1.3640 h1        1 MOL      0.047064
    142 H61         4.6630    2.9790   -2.5430 hc        1 MOL      0.034292
    143 H62         6.0320    4.1150   -2.7800 hc        1 MOL      0.034292
    144 H63         5.5050    2.4740   -4.6620 hc        1 MOL      0.016318
    145 H64         7.1960    2.4930   -4.2590 hc        1 MOL      0.016318
    146 H65         4.9560    0.7250   -3.2040 h1        1 MOL      0.076858
    147 H66         6.5700    0.1920   -3.9190 h1        1 MOL      0.076858
    148 N13         4.7520    2.0780    0.2250 n         1 MOL     -0.112310
    149 C50         4.1880    2.1900    1.4880 c3        1 MOL     -0.129487
    150 C51         5.0620    1.6600    2.6510 c         1 MOL      0.458662
    151 O21         5.1600    2.3260    3.6650 o         1 MOL     -0.543066
    152 C52         2.7920    1.5560    1.4410 c3        1 MOL     -0.113882
    153 C53         1.8380    2.1750    0.4540 c3        1 MOL     -0.264438
    154 C54         0.4690    1.5050    0.5760 c         1 MOL      0.836523
    155 O22        -0.5100    1.9270   -0.0630 o         1 MOL     -0.831173
    156 O23         0.1920    0.4300    1.0770 o         1 MOL     -0.831173
    157 H67         4.2830    1.4690   -0.4220 hn        1 MOL      0.217717
    158 H68         4.0140    3.2190    1.8030 h1        1 MOL      0.113693
    159 H69         2.3710    1.7880    2.4120 hc        1 MOL      0.066809
    160 H70         2.7500    0.4700    1.3570 hc        1 MOL      0.066809
    161 H71         2.2080    2.0310   -0.5680 hc        1 MOL      0.087924
    162 H72         1.6970    3.2360    0.6430 hc        1 MOL      0.087924
    163 N14         5.7330    0.5010    2.4650 n         1 MOL     -0.023176
    164 C55         6.7610   -0.0330    3.3880 c3        1 MOL     -0.336131
    165 H73         6.3940    0.0240    4.4130 h1        1 MOL      0.112512
    166 H74         6.9730   -1.0720    3.1350 h1        1 MOL      0.112512
    167 H75         7.6730    0.5570    3.2970 h1        1 MOL      0.112512
    168 H76         5.5780   -0.0210    1.6210 hn        1 MOL      0.056535
    169 Ca1        -2.2390    0.0070   -0.0280 Ca        1 MOL      1.778558
    170 O24        -4.6700   -0.5350    1.2170 oh        1 MOL     -0.709752
    171 H77        -5.0710   -1.1570    1.8340 ho        1 MOL      0.364882
    172 H78        -4.8880    0.3290    1.5670 ho        1 MOL      0.364882
    173 O25        -2.0690   -0.1900    2.8990 oh        1 MOL     -0.709752
    174 H79        -1.1500    0.0520    2.8580 ho        1 MOL      0.364882
    175 H80        -2.2090   -0.4390    3.8180 ho        1 MOL      0.364882
@<TRIPOS>BOND
     1    1    2 1   
     2    1    4 1   
     3    1    5 1   
     4    1    6 1   
     5    2    3 2   
     6    2    7 1   
     7    7    8 1   
     8    7   15 1   
     9    8    9 1   
    10    8   11 1   
    11    8   16 1   
    12    9   10 2   
    13    9   19 1   
    14   11   12 1   
    15   11   17 1   
    16   11   18 1   
    17   12   13 1   
    18   12   14 1   
    19   19   20 1   
    20   19   24 1   
    21   20   21 1   
    22   20   23 1   
    23   20   25 1   
    24   21   22 2   
    25   21   29 1   
    26   23   26 1   
    27   23   27 1   
    28   23   28 1   
    29   29   30 1   
    30   29   37 1   
    31   30   31 1   
    32   30   33 1   
    33   30   38 1   
    34   31   32 2   
    35   31   41 1   
    36   33   34 1   
    37   33   39 1   
    38   33   40 1   
    39   34   35 1   
    40   34   36 1   
    41   41   42 1   
    42   41   45 1   
    43   42   43 1   
    44   42   46 1   
    45   42   47 1   
    46   43   44 2   
    47   43   48 1   
    48   48   49 1   
    49   48   56 1   
    50   49   50 1   
    51   49   52 1   
    52   49   57 1   
    53   50   51 2   
    54   50   62 1   
    55   52   53 1   
    56   52   58 1   
    57   52   59 1   
    58   53   54 1   
    59   53   55 2   
    60   54   60 1   
    61   54   61 1   
    62   62   63 1   
    63   62   66 1   
    64   63   64 1   
    65   63   67 1   
    66   63   68 1   
    67   64   65 2   
    68   64   69 1   
    69   69   70 1   
    70   69   76 1   
    71   70   71 1   
    72   70   73 1   
    73   70   77 1   
    74   71   72 2   
    75   71   83 1   
    76   73   74 1   
    77   73   75 1   
    78   73   78 1   
    79   74   80 1   
    80   74   81 1   
    81   74   82 1   
    82   75   79 1   
    83   83   84 1   
    84   83   91 1   
    85   84   85 1   
    86   84   87 1   
    87   84   92 1   
    88   85   86 2   
    89   85  102 1   
    90   87   88 1   
    91   87   89 1   
    92   87   93 1   
    93   88   90 1   
    94   88   94 1   
    95   88   95 1   
    96   89   96 1   
    97   89   97 1   
    98   89   98 1   
    99   90   99 1   
   100   90  100 1   
   101   90  101 1   
   102  102  103 1   
   103  102  110 1   
   104  103  104 1   
   105  103  106 1   
   106  103  111 1   
   107  104  105 2   
   108  104  114 1   
   109  106  107 1   
   110  106  112 1   
   111  106  113 1   
   112  107  108 1   
   113  107  109 1   
   114  114  115 1   
   115  114  125 1   
   116  115  116 1   
   117  115  118 1   
   118  115  126 1   
   119  116  117 2   
   120  116  134 1   
   121  118  119 1   
   122  118  127 1   
   123  118  128 1   
   124  119  120 ar  
   125  119  121 ar  
   126  120  122 ar  
   127  120  129 1   
   128  121  123 ar  
   129  121  130 1   
   130  122  124 ar  
   131  122  131 1   
   132  123  124 ar  
   133  123  132 1   
   134  124  133 1   
   135  134  135 1   
   136  134  140 1   
   137  135  136 1   
   138  135  138 1   
   139  135  141 1   
   140  136  137 2   
   141  136  148 1   
   142  138  139 1   
   143  138  142 1   
   144  138  143 1   
   145  139  140 1   
   146  139  144 1   
   147  139  145 1   
   148  140  146 1   
   149  140  147 1   
   150  148  149 1   
   151  148  157 1   
   152  149  150 1   
   153  149  152 1   
   154  149  158 1   
   155  150  151 2   
   156  150  163 1   
   157  152  153 1   
   158  152  159 1   
   159  152  160 1   
   160  153  154 1   
   161  153  161 1   
   162  153  162 1   
   163  154  155 1   
   164  154  156 1   
   165  163  164 1   
   166  163  168 1   
   167  164  165 1   
   168  164  166 1   
   169  164  167 1   
   170  170  171 1   
   171  170  172 1   
   172  173  174 1   
   173  173  175 1   
@<TRIPOS>SUBSTRUCTURE
     1 MOL         1 TEMP              0 ****  ****    0 ROOT
