@<TRIPOS>MOLECULE
MOL
  182   178     1     0     0
SMALL
resp


@<TRIPOS>ATOM
      1 C1          3.2260    2.4270    5.1100 c3        1 MOL     -0.463650
      2 C2          2.7470    2.3830    3.7050 c         1 MOL      0.844505
      3 O1          3.5550    2.3100    2.7980 o         1 MOL     -0.613425
      4 H1          3.7280    1.4900    5.3520 hc        1 MOL      0.108449
      5 H2          3.9260    3.2540    5.2300 hc        1 MOL      0.108449
      6 H3          2.3770    2.5680    5.7800 hc        1 MOL      0.108449
      7 N1          1.4020    2.4530    3.6690 n         1 MOL     -0.593545
      8 C3          0.5350    2.3100    2.4800 c3        1 MOL      0.024744
      9 C4          0.6190    3.6200    1.5780 c         1 MOL      0.531144
     10 O2          0.3430    4.6540    2.1770 o         1 MOL     -0.588792
     11 C5         -0.8690    1.8630    2.7820 c3        1 MOL     -0.183869
     12 C6         -1.8900    1.7310    1.6280 c         1 MOL      0.891468
     13 O3         -3.0300    1.5600    2.0130 o         1 MOL     -0.779522
     14 O4         -1.5290    1.7330    0.4020 o         1 MOL     -0.779522
     15 H4          0.8940    2.8150    4.4730 hn        1 MOL      0.333816
     16 H5          0.9160    1.5150    1.8410 h1        1 MOL      0.079737
     17 H6         -1.3500    2.4530    3.5680 hc        1 MOL      0.052655
     18 H7         -0.8450    0.8410    3.1610 hc        1 MOL      0.052655
     19 N2          1.0020    3.5750    0.3150 n         1 MOL     -0.201361
     20 C7          1.4030    4.7970   -0.4130 c3        1 MOL     -0.034385
     21 C8          0.4590    5.2790   -1.4830 c         1 MOL      0.447688
     22 O5          0.7620    6.4600   -1.9210 o         1 MOL     -0.563882
     23 C9          2.8160    4.6710   -0.8970 c3        1 MOL     -0.006604
     24 C10         3.8910    4.2380    0.1040 c3        1 MOL     -0.057062
     25 C11         4.0040    5.2480    1.2620 c3        1 MOL     -0.093917
     26 C12         5.3340    5.1160    1.9420 c3        1 MOL      0.106598
     27 N3          5.5180    6.2300    2.9600 n4        1 MOL     -0.334852
     28 H8          1.1560    2.6820   -0.1320 hn        1 MOL      0.107518
     29 H9          1.3420    5.5690    0.3520 h1        1 MOL      0.078824
     30 H10         3.1700    5.5900   -1.3660 hc        1 MOL      0.031364
     31 H11         2.8750    3.9710   -1.7320 hc        1 MOL      0.031364
     32 H12         4.7960    4.0980   -0.4920 hc        1 MOL      0.068437
     33 H13         3.5920    3.2590    0.4830 hc        1 MOL      0.068437
     34 H14         3.1670    5.0340    1.9360 hc        1 MOL      0.037539
     35 H15         3.8940    6.2570    0.8850 hc        1 MOL      0.037539
     36 H16         5.9980    5.1930    1.0780 hx        1 MOL      0.068056
     37 H17         5.4920    4.1470    2.4120 hx        1 MOL      0.068056
     38 H18         5.2580    7.1690    2.6970 hn        1 MOL      0.309128
     39 H19         4.9510    6.0380    3.7790 hn        1 MOL      0.309128
     40 H20         6.5050    6.3400    3.1740 hn        1 MOL      0.309128
     41 N4         -0.7060    4.7110   -1.7980 n         1 MOL     -0.277092
     42 C13        -1.9190    5.2620   -2.3800 c3        1 MOL      0.023724
     43 C14        -3.0680    5.2830   -1.4310 c         1 MOL      0.462689
     44 O6         -4.1510    5.8020   -1.7590 o         1 MOL     -0.548387
     45 C15        -2.2090    4.3900   -3.6570 c3        1 MOL     -0.248840
     46 C16        -2.2890    2.8720   -3.5140 c         1 MOL      0.733638
     47 O7         -2.4080    2.2660   -2.4000 o         1 MOL     -0.678045
     48 O8         -2.0190    2.2710   -4.5680 o         1 MOL     -0.678045
     49 H21        -0.7450    3.7120   -1.6290 hn        1 MOL      0.265358
     50 H22        -1.7650    6.3260   -2.5970 h1        1 MOL      0.112018
     51 H23        -1.5950    4.7600   -4.4690 hc        1 MOL      0.081536
     52 H24        -3.2300    4.6370   -3.9560 hc        1 MOL      0.081536
     53 N5         -2.9950    4.6570   -0.2450 n         1 MOL     -0.225072
     54 C17        -4.0460    4.5900    0.7410 c3        1 MOL     -0.251688
     55 C18        -5.1630    3.5750    0.4720 c         1 MOL      0.515590
     56 O9         -6.2670    3.5980    1.0750 o         1 MOL     -0.596789
     57 H25        -2.1630    4.0830   -0.1670 hn        1 MOL      0.139530
     58 H26        -4.4810    5.5850    0.7550 h1        1 MOL      0.145842
     59 H27        -3.6140    4.4400    1.7300 h1        1 MOL      0.145842
     60 N6         -4.9760    2.5900   -0.3770 n         1 MOL     -0.079047
     61 C19        -6.0170    1.6440   -0.8440 c3        1 MOL     -0.119668
     62 C20        -6.4930    0.6040    0.2040 c         1 MOL      0.371026
     63 O10        -7.5310   -0.0600   -0.0180 o         1 MOL     -0.511484
     64 C21        -5.5680    0.9960   -2.1780 c3        1 MOL     -0.053143
     65 C22        -4.8240   -0.2720   -2.2670 c         1 MOL      0.562828
     66 N7         -5.1920   -1.2570   -3.0840 n         1 MOL     -0.787636
     67 O11        -3.8390   -0.4470   -1.5240 o         1 MOL     -0.656470
     68 H28        -4.0300    2.5050   -0.7050 hn        1 MOL      0.091964
     69 H29        -6.9220    2.2080   -1.0710 h1        1 MOL      0.137462
     70 H30        -5.0790    1.7950   -2.7190 hc        1 MOL      0.057342
     71 H31        -6.4790    0.9040   -2.7840 hc        1 MOL      0.057342
     72 H32        -6.1160   -1.2430   -3.5000 hn        1 MOL      0.395315
     73 H33        -4.6500   -2.1000   -2.9680 hn        1 MOL      0.395315
     74 N8         -5.9000    0.4790    1.3540 n         1 MOL     -0.152789
     75 C23        -6.3360   -0.4150    2.4410 c3        1 MOL     -0.169279
     76 C24        -5.4320   -1.6470    2.5770 c         1 MOL      0.436660
     77 O12        -5.6070   -2.6010    3.3370 o         1 MOL     -0.565995
     78 H34        -5.1350    1.0990    1.6060 hn        1 MOL      0.299534
     79 H35        -7.3660   -0.7390    2.2950 h1        1 MOL      0.127233
     80 H36        -6.4110    0.1930    3.3310 h1        1 MOL      0.127233
     81 N9         -4.4860   -1.8200    1.6600 n         1 MOL     -0.052678
     82 C25        -3.5450   -2.9270    1.4140 c3        1 MOL      0.000230
     83 C26        -2.1050   -2.4440    1.1710 c         1 MOL      0.457878
     84 O13        -1.9300   -1.4460    0.4360 o         1 MOL     -0.542258
     85 C27        -4.0850   -3.7270    0.1270 c3        1 MOL      0.069982
     86 C28        -5.4660   -4.1550    0.1700 ca        1 MOL      0.278179
     87 C29        -6.5360   -3.4410   -0.4380 ca        1 MOL     -0.391894
     88 C30        -5.7750   -5.4110    0.7310 ca        1 MOL     -0.391894
     89 C31        -7.8410   -3.8780   -0.3740 ca        1 MOL      0.002603
     90 C32        -7.1560   -5.8720    0.8860 ca        1 MOL      0.002603
     91 C33        -8.1280   -5.0950    0.2330 ca        1 MOL      0.069724
     92 O14        -9.4270   -5.3040    0.5700 oh        1 MOL     -0.432381
     93 H37        -4.2530   -1.0310    1.0660 hn        1 MOL      0.093864
     94 H38        -3.5260   -3.5850    2.2760 h1        1 MOL      0.055808
     95 H39        -3.5270   -4.6360   -0.1050 hc        1 MOL     -0.035352
     96 H40        -3.9910   -3.0540   -0.7200 hc        1 MOL     -0.035352
     97 H41        -6.2890   -2.4820   -0.8560 ha        1 MOL      0.152308
     98 H42        -4.9480   -6.0300    1.0570 ha        1 MOL      0.152308
     99 H43        -8.6990   -3.2590   -0.6070 ha        1 MOL      0.097977
    100 H44        -7.3290   -6.8280    1.3590 ha        1 MOL      0.097977
    101 H45        -9.5090   -5.9650    1.2570 ho        1 MOL      0.350116
    102 N10        -1.0830   -3.0690    1.7930 n         1 MOL     -0.395273
    103 C34         0.3780   -2.7150    1.7630 c3        1 MOL      0.081545
    104 C35         1.1790   -3.7540    0.9970 c         1 MOL      0.376799
    105 O15         1.1580   -4.9320    1.2970 o         1 MOL     -0.545855
    106 C36         1.0100   -2.5650    3.1630 c3        1 MOL      0.222314
    107 C37         0.2170   -1.7570    4.2070 c3        1 MOL      0.090660
    108 C38         2.4660   -2.0900    3.1700 c3        1 MOL     -0.322356
    109 C39         0.4350   -2.3140    5.6250 c3        1 MOL     -0.137418
    110 H46        -1.3170   -3.7710    2.4690 hn        1 MOL      0.260984
    111 H47         0.5520   -1.8000    1.2050 h1        1 MOL      0.023748
    112 H48         1.1770   -3.5480    3.6060 hc        1 MOL     -0.035714
    113 H49        -0.8120   -1.6880    3.8580 hc        1 MOL     -0.035792
    114 H50         0.5750   -0.7250    4.2250 hc        1 MOL     -0.035792
    115 H51         2.5360   -1.0190    2.9860 hc        1 MOL      0.073155
    116 H52         2.9190   -2.1710    4.1540 hc        1 MOL      0.073155
    117 H53         3.0420   -2.6550    2.4370 hc        1 MOL      0.073155
    118 H54         0.0710   -1.6720    6.4330 hc        1 MOL      0.030468
    119 H55        -0.0830   -3.2600    5.7130 hc        1 MOL      0.030468
    120 H56         1.4960   -2.4830    5.7950 hc        1 MOL      0.030468
    121 N11         1.7160   -3.2530   -0.1160 n         1 MOL     -0.084509
    122 C40         2.6350   -3.9790   -1.0670 c3        1 MOL      0.050983
    123 C41         4.0780   -4.0170   -0.5600 c         1 MOL      0.355842
    124 O16         4.5480   -3.3060    0.3470 o         1 MOL     -0.363608
    125 C42         2.6060   -3.2980   -2.4060 c3        1 MOL      0.116461
    126 O17         1.3300   -3.3810   -2.9730 oh        1 MOL     -0.586524
    127 H57         1.5530   -2.2840   -0.3430 hn        1 MOL      0.245044
    128 H58         2.1970   -4.9630   -1.2100 h1        1 MOL      0.063419
    129 H59         3.2760   -3.8550   -3.0740 h1        1 MOL      0.006220
    130 H60         3.0090   -2.2870   -2.3820 h1        1 MOL      0.006220
    131 H61         1.4670   -3.6400   -3.8870 ho        1 MOL      0.402206
    132 N12         4.8200   -4.9490   -1.1010 n         1 MOL     -0.464396
    133 C43         6.2530   -5.1170   -0.7520 c3        1 MOL      0.269835
    134 C44         7.0720   -3.8030   -1.1320 c         1 MOL      0.345346
    135 O18         7.7860   -3.2330   -0.3300 o         1 MOL     -0.459887
    136 C45         6.6040   -6.3810   -1.5330 c3        1 MOL     -0.372931
    137 H62         4.4440   -5.4890   -1.8740 hn        1 MOL      0.293031
    138 H63         6.4260   -5.3180    0.3110 h1        1 MOL      0.073737
    139 H64         6.0740   -7.1940   -1.0280 hc        1 MOL      0.105042
    140 H65         6.2220   -6.3010   -2.5500 hc        1 MOL      0.105042
    141 H66         7.6650   -6.5740   -1.5050 hc        1 MOL      0.105042
    142 N13         6.7130   -3.1400   -2.3130 n         1 MOL     -0.301286
    143 C46         7.4260   -1.8580   -2.6770 c3        1 MOL      0.003438
    144 C47         7.0230   -0.6500   -1.7930 c         1 MOL      0.391537
    145 O19         7.8590    0.2370   -1.6550 o         1 MOL     -0.509117
    146 C48         7.3150   -1.5450   -4.2280 c3        1 MOL     -0.280305
    147 H67         6.1930   -3.6210   -3.0350 hn        1 MOL      0.219667
    148 H68         8.4730   -2.0690   -2.4430 h1        1 MOL      0.133154
    149 H69         7.8140   -2.3780   -4.7200 hc        1 MOL      0.089976
    150 H70         6.2770   -1.5380   -4.5660 hc        1 MOL      0.089976
    151 H71         7.8850   -0.6750   -4.5690 hc        1 MOL      0.089976
    152 N14         5.8930   -0.7210   -1.1250 n         1 MOL      0.021774
    153 C49         5.4230    0.2720   -0.1770 c3        1 MOL     -0.253344
    154 C50         6.1200    0.2010    1.1580 c         1 MOL      0.535461
    155 O20         6.7470    1.2290    1.6010 o         1 MOL     -0.570836
    156 C51         3.8990    0.2330   -0.1210 c3        1 MOL      0.046160
    157 C52         3.1300    0.5550   -1.3900 c3        1 MOL     -0.053206
    158 C53         1.6580    0.4740   -1.1630 c         1 MOL      0.908093
    159 O21         0.9490    1.5180   -1.4070 o         1 MOL     -0.798943
    160 O22         1.0490   -0.4740   -0.6190 o         1 MOL     -0.798943
    161 H72         5.3650   -1.5590   -1.2990 hn        1 MOL      0.042401
    162 H73         5.5940    1.2540   -0.6120 h1        1 MOL      0.101213
    163 H74         3.6950    0.9940    0.6320 hc        1 MOL     -0.025883
    164 H75         3.5470   -0.6830    0.3610 hc        1 MOL     -0.025883
    165 H76         3.3860   -0.1700   -2.1600 hc        1 MOL      0.006949
    166 H77         3.3790    1.5590   -1.7390 hc        1 MOL      0.006949
    167 N15         6.1370   -1.0170    1.7200 n         1 MOL     -0.123112
    168 C54         6.8600   -1.4660    2.8880 c3        1 MOL     -0.195317
    169 H78         6.9860   -2.5480    2.8430 h1        1 MOL      0.091255
    170 H79         7.8380   -0.9870    2.9160 h1        1 MOL      0.091255
    171 H80         6.3000   -1.2030    3.7860 h1        1 MOL      0.091255
    172 H81         5.6330   -1.7260    1.1930 hn        1 MOL      0.142783
    173 Ca1        -1.3040    0.2110   -1.6080 Ca        1 MOL      1.800707
    174 O23        -2.0390   -0.4950   -4.2440 oh        1 MOL     -0.823337
    175 H82        -2.0810    0.3180   -4.7450 ho        1 MOL      0.390759
    176 H83        -2.7860   -1.0050   -4.5640 ho        1 MOL      0.390759
    177 O24        -1.4040   -2.5450   -2.0930 oh        1 MOL     -0.823337
    178 H84        -2.3080   -2.7980   -2.2840 ho        1 MOL      0.390759
    179 H85        -0.8670   -3.2050   -2.5390 ho        1 MOL      0.390759
    180 O25         0.6490   -0.0280   -3.7650 oh        1 MOL     -0.823337
    181 H86         1.4550   -0.4000   -4.1180 ho        1 MOL      0.390759
    182 H87        -0.0260   -0.2910   -4.4010 ho        1 MOL      0.390759
@<TRIPOS>BOND
     1    1    2 1   
     2    1    4 1   
     3    1    5 1   
     4    1    6 1   
     5    2    3 2   
     6    2    7 1   
     7    7    8 1   
     8    7   15 1   
     9    8    9 1   
    10    8   11 1   
    11    8   16 1   
    12    9   10 2   
    13    9   19 1   
    14   11   12 1   
    15   11   17 1   
    16   11   18 1   
    17   12   13 1   
    18   12   14 1   
    19   19   20 1   
    20   19   28 1   
    21   20   21 1   
    22   20   23 1   
    23   20   29 1   
    24   21   22 2   
    25   21   41 1   
    26   23   24 1   
    27   23   30 1   
    28   23   31 1   
    29   24   25 1   
    30   24   32 1   
    31   24   33 1   
    32   25   26 1   
    33   25   34 1   
    34   25   35 1   
    35   26   27 1   
    36   26   36 1   
    37   26   37 1   
    38   27   38 1   
    39   27   39 1   
    40   27   40 1   
    41   41   42 1   
    42   41   49 1   
    43   42   43 1   
    44   42   45 1   
    45   42   50 1   
    46   43   44 2   
    47   43   53 1   
    48   45   46 1   
    49   45   51 1   
    50   45   52 1   
    51   46   47 1   
    52   46   48 1   
    53   53   54 1   
    54   53   57 1   
    55   54   55 1   
    56   54   58 1   
    57   54   59 1   
    58   55   56 2   
    59   55   60 1   
    60   60   61 1   
    61   60   68 1   
    62   61   62 1   
    63   61   64 1   
    64   61   69 1   
    65   62   63 2   
    66   62   74 1   
    67   64   65 1   
    68   64   70 1   
    69   64   71 1   
    70   65   66 1   
    71   65   67 2   
    72   66   72 1   
    73   66   73 1   
    74   74   75 1   
    75   74   78 1   
    76   75   76 1   
    77   75   79 1   
    78   75   80 1   
    79   76   77 2   
    80   76   81 1   
    81   81   82 1   
    82   81   93 1   
    83   82   83 1   
    84   82   85 1   
    85   82   94 1   
    86   83   84 2   
    87   83  102 1   
    88   85   86 1   
    89   85   95 1   
    90   85   96 1   
    91   86   87 ar  
    92   86   88 ar  
    93   87   89 ar  
    94   87   97 1   
    95   88   90 ar  
    96   88   98 1   
    97   89   91 ar  
    98   89   99 1   
    99   90   91 ar  
   100   90  100 1   
   101   91   92 1   
   102   92  101 1   
   103  102  103 1   
   104  102  110 1   
   105  103  104 1   
   106  103  106 1   
   107  103  111 1   
   108  104  105 2   
   109  104  121 1   
   110  106  107 1   
   111  106  108 1   
   112  106  112 1   
   113  107  109 1   
   114  107  113 1   
   115  107  114 1   
   116  108  115 1   
   117  108  116 1   
   118  108  117 1   
   119  109  118 1   
   120  109  119 1   
   121  109  120 1   
   122  121  122 1   
   123  121  127 1   
   124  122  123 1   
   125  122  125 1   
   126  122  128 1   
   127  123  124 2   
   128  123  132 1   
   129  125  126 1   
   130  125  129 1   
   131  125  130 1   
   132  126  131 1   
   133  132  133 1   
   134  132  137 1   
   135  133  134 1   
   136  133  136 1   
   137  133  138 1   
   138  134  135 2   
   139  134  142 1   
   140  136  139 1   
   141  136  140 1   
   142  136  141 1   
   143  142  143 1   
   144  142  147 1   
   145  143  144 1   
   146  143  146 1   
   147  143  148 1   
   148  144  145 2   
   149  144  152 1   
   150  146  149 1   
   151  146  150 1   
   152  146  151 1   
   153  152  153 1   
   154  152  161 1   
   155  153  154 1   
   156  153  156 1   
   157  153  162 1   
   158  154  155 2   
   159  154  167 1   
   160  156  157 1   
   161  156  163 1   
   162  156  164 1   
   163  157  158 1   
   164  157  165 1   
   165  157  166 1   
   166  158  159 1   
   167  158  160 1   
   168  167  168 1   
   169  167  172 1   
   170  168  169 1   
   171  168  170 1   
   172  168  171 1   
   173  174  175 1   
   174  174  176 1   
   175  177  178 1   
   176  177  179 1   
   177  180  181 1   
   178  180  182 1   
@<TRIPOS>SUBSTRUCTURE
     1 MOL         1 TEMP              0 ****  ****    0 ROOT
