@<TRIPOS>MOLECULE
MOL
  189   185     1     0     0
SMALL
resp


@<TRIPOS>ATOM
      1 C1         -0.5480    3.0200    5.0290 c3        1 MOL     -0.290768
      2 C2         -0.9930    2.4950    3.6470 c         1 MOL      0.652193
      3 O1         -0.2710    2.6730    2.6260 o         1 MOL     -0.620151
      4 H1          0.4960    3.3290    4.9800 hc        1 MOL      0.079047
      5 H2         -1.1670    3.8720    5.3100 hc        1 MOL      0.079047
      6 H3         -0.6590    2.2290    5.7710 hc        1 MOL      0.079047
      7 N1         -2.0280    1.7430    3.6010 n         1 MOL     -0.531352
      8 C3         -2.7360    1.3150    2.3590 c3        1 MOL      0.362858
      9 C4         -3.4690    2.4190    1.5990 c         1 MOL      0.340240
     10 O2         -4.6700    2.4840    1.5670 o         1 MOL     -0.416933
     11 C5         -3.7230    0.1950    2.7030 c3        1 MOL     -0.353515
     12 C6         -4.4230   -0.4650    1.5310 c         1 MOL      0.707405
     13 O3         -3.9720   -0.2270    0.4230 o         1 MOL     -0.618681
     14 O4         -5.2960   -1.3640    1.7060 o         1 MOL     -0.618681
     15 H4         -2.4590    1.5140    4.4900 hn        1 MOL      0.297898
     16 H5         -2.0080    0.8860    1.6710 h1        1 MOL     -0.037969
     17 H6         -4.4490    0.6720    3.3490 hc        1 MOL      0.066719
     18 H7         -3.1370   -0.6130    3.1280 hc        1 MOL      0.066719
     19 N2         -2.6940    3.3290    0.9450 n         1 MOL     -0.408407
     20 C7         -3.2680    4.5830    0.3200 c3        1 MOL      0.083527
     21 C8         -4.1860    4.3970   -0.8590 c         1 MOL      0.467001
     22 O5         -4.9550    5.3110   -1.0680 o         1 MOL     -0.593124
     23 C9         -2.0820    5.5650    0.0750 c3        1 MOL     -0.148078
     24 C10        -2.4160    7.1060    0.0340 c3        1 MOL     -0.103037
     25 C11        -3.3480    7.4850    1.1790 c3        1 MOL      0.031424
     26 C12        -3.4020    8.9770    1.4340 c3        1 MOL     -0.013543
     27 N3         -3.9920    9.7150    0.2720 n4        1 MOL     -0.315834
     28 H8         -1.6930    3.2570    1.0740 hn        1 MOL      0.294948
     29 H9         -3.9100    5.0220    1.0720 h1        1 MOL      0.041232
     30 H10        -1.5780    5.1740   -0.8050 hc        1 MOL      0.093672
     31 H11        -1.3570    5.4200    0.8660 hc        1 MOL      0.093672
     32 H12        -2.6580    7.4370   -0.9740 hc        1 MOL      0.038531
     33 H13        -1.4860    7.6580    0.1770 hc        1 MOL      0.038531
     34 H14        -2.9860    6.9460    2.0600 hc        1 MOL      0.055445
     35 H15        -4.3500    7.1190    0.9360 hc        1 MOL      0.055445
     36 H16        -2.4900    9.4720    1.7720 hx        1 MOL      0.081785
     37 H17        -4.1140    8.9410    2.2640 hx        1 MOL      0.081785
     38 H18        -3.5990    9.5360   -0.6440 hn        1 MOL      0.317960
     39 H19        -4.9680    9.4770    0.1930 hn        1 MOL      0.317960
     40 H20        -4.0000   10.7090    0.4360 hn        1 MOL      0.317960
     41 N4         -4.1650    3.2660   -1.5750 n         1 MOL     -0.276444
     42 C13        -5.0890    2.9530   -2.7110 c3        1 MOL      0.126070
     43 C14        -6.2080    1.9860   -2.2340 c         1 MOL      0.405719
     44 O6         -7.1030    1.7580   -3.0340 o         1 MOL     -0.508668
     45 C15        -4.2890    2.5110   -3.9650 c3        1 MOL     -0.313179
     46 C16        -3.3690    1.2660   -3.6750 c         1 MOL      0.843873
     47 O7         -3.3030    0.7530   -2.5730 o         1 MOL     -0.692728
     48 O8         -2.6540    0.8940   -4.6450 o         1 MOL     -0.692728
     49 H21        -3.4150    2.6130   -1.4250 hn        1 MOL      0.218305
     50 H22        -5.6180    3.8820   -2.9460 h1        1 MOL      0.053719
     51 H23        -3.6020    3.3160   -4.2350 hc        1 MOL      0.073437
     52 H24        -5.0070    2.3110   -4.7630 hc        1 MOL      0.073437
     53 N5         -6.1960    1.5070   -0.9990 n         1 MOL     -0.102100
     54 C17        -7.1370    0.6290   -0.4380 c3        1 MOL     -0.075857
     55 C18        -7.3340   -0.7340   -1.2020 c         1 MOL      0.410747
     56 O9         -8.4460   -1.0320   -1.7190 o         1 MOL     -0.553201
     57 H25        -5.3640    1.5410   -0.4350 hn        1 MOL     -0.000219
     58 H26        -8.1200    1.1000   -0.3720 h1        1 MOL      0.077318
     59 H27        -6.9560    0.4360    0.6240 h1        1 MOL      0.077318
     60 N6         -6.2620   -1.5580   -1.2340 n         1 MOL     -0.068185
     61 C19        -6.2700   -2.8640   -1.8970 c3        1 MOL      0.078597
     62 C20        -6.0170   -4.0030   -0.9170 c         1 MOL      0.433960
     63 O10        -5.6190   -5.1170   -1.2790 o         1 MOL     -0.549823
     64 C21        -5.1600   -2.9670   -3.0140 c3        1 MOL     -0.187230
     65 C22        -3.7760   -2.6220   -2.5320 c         1 MOL      0.760678
     66 O11        -2.9110   -2.1160   -3.3230 o         1 MOL     -0.694968
     67 O12        -3.3570   -2.8910   -1.3900 o         1 MOL     -0.694968
     68 H28        -5.4480   -1.3040   -0.6930 hn        1 MOL     -0.011508
     69 H29        -7.2680   -3.0840   -2.2800 h1        1 MOL      0.072574
     70 H30        -5.4610   -2.2050   -3.7270 hc        1 MOL      0.055268
     71 H31        -5.2030   -3.9630   -3.4720 hc        1 MOL      0.055268
     72 N7         -6.2130   -3.7410    0.3480 n         1 MOL     -0.287676
     73 C23        -6.0860   -4.6630    1.4460 c3        1 MOL     -0.269795
     74 C24        -4.6340   -4.9430    1.8580 c         1 MOL      0.507373
     75 O13        -4.4130   -5.8450    2.6900 o         1 MOL     -0.547896
     76 H32        -6.1610   -2.7560    0.5190 hn        1 MOL      0.190184
     77 H33        -6.5410   -5.5900    1.1050 h1        1 MOL      0.153530
     78 H34        -6.6280   -4.2350    2.2980 h1        1 MOL      0.153530
     79 N8         -3.6610   -4.2310    1.2220 n         1 MOL     -0.193343
     80 C25        -2.2390   -4.5320    1.3630 c3        1 MOL     -0.152086
     81 C26        -1.2740   -3.3430    1.4800 c         1 MOL      0.667168
     82 O14        -1.4490   -2.2740    0.8910 o         1 MOL     -0.570365
     83 C27        -1.7380   -5.5730    0.3930 c3        1 MOL      0.415746
     84 C28        -2.5060   -6.8680    0.2240 c3        1 MOL     -0.501531
     85 O15        -1.7930   -5.0180   -0.8920 oh        1 MOL     -0.605581
     86 H35        -3.8820   -3.3360    0.8170 hn        1 MOL      0.225382
     87 H36        -2.1380   -5.0190    2.3280 h1        1 MOL      0.049224
     88 H37        -0.6880   -5.7650    0.6230 h1        1 MOL      0.008293
     89 H38        -2.5820   -4.4730   -0.8750 ho        1 MOL      0.400255
     90 H39        -3.5620   -6.7420    0.0090 hc        1 MOL      0.133657
     91 H40        -2.1390   -7.4620   -0.6160 hc        1 MOL      0.133657
     92 H41        -2.3710   -7.4270    1.1520 hc        1 MOL      0.133657
     93 N9         -0.0540   -3.5300    1.9750 n         1 MOL     -0.558020
     94 C29         0.9700   -2.5030    2.0050 c3        1 MOL     -0.175865
     95 C30         2.2790   -3.0860    1.2600 c         1 MOL      0.702783
     96 O16         2.8190   -4.1130    1.7060 o         1 MOL     -0.587338
     97 C31         1.3040   -1.9950    3.4710 c3        1 MOL      0.371527
     98 C32         0.0490   -1.5920    4.2780 c3        1 MOL      0.038818
     99 C33         2.2970   -0.8680    3.5420 c3        1 MOL     -0.570035
    100 C34         0.3450   -1.5350    5.8360 c3        1 MOL     -0.311474
    101 H42         0.1800   -4.3920    2.4490 hn        1 MOL      0.293975
    102 H43         0.7020   -1.6350    1.3960 h1        1 MOL      0.165300
    103 H44         1.8180   -2.7930    4.0060 hc        1 MOL     -0.050090
    104 H45        -0.7670   -2.2520    4.0130 hc        1 MOL      0.007472
    105 H46        -0.2230   -0.6180    3.8730 hc        1 MOL      0.007472
    106 H47         2.5830   -0.6680    4.5650 hc        1 MOL      0.102527
    107 H48         3.1560   -1.2270    2.9710 hc        1 MOL      0.102527
    108 H49         1.8650    0.0510    3.1610 hc        1 MOL      0.102527
    109 H50        -0.5380   -1.1750    6.3600 hc        1 MOL      0.079378
    110 H51         0.6870   -2.4890    6.2400 hc        1 MOL      0.079378
    111 H52         1.1520   -0.8200    6.0110 hc        1 MOL      0.079378
    112 N10         2.7200   -2.3870    0.2170 n         1 MOL     -0.541256
    113 C35         4.1180   -2.4770   -0.3070 c3        1 MOL      0.090963
    114 C36         5.2470   -1.8590    0.5120 c         1 MOL      0.409507
    115 O17         5.0170   -1.0010    1.3410 o         1 MOL     -0.281846
    116 C37         4.2360   -1.8860   -1.7190 c3        1 MOL      0.199002
    117 C38         3.0920   -2.1590   -2.7110 c3        1 MOL     -0.599725
    118 O18         4.3510   -0.5030   -1.5870 oh        1 MOL     -0.540155
    119 H53         2.0930   -1.6300   -0.0370 hn        1 MOL      0.408946
    120 H54         4.3950   -3.5210   -0.4600 h1        1 MOL      0.058268
    121 H55         5.2090   -2.1820   -2.1040 h1        1 MOL     -0.009808
    122 H56         3.7870   -0.0920   -2.2520 ho        1 MOL      0.416048
    123 H57         3.4180   -2.0290   -3.7390 hc        1 MOL      0.176200
    124 H58         2.7180   -3.1660   -2.5300 hc        1 MOL      0.176200
    125 H59         2.3240   -1.3990   -2.5940 hc        1 MOL      0.176200
    126 N11         6.5170   -2.1840    0.3020 n         1 MOL     -0.442632
    127 C39         7.6510   -1.4520    0.8190 c3        1 MOL      0.054842
    128 C40         7.5920    0.0420    0.5180 c         1 MOL      0.210566
    129 O19         7.8870    0.7260    1.5100 o         1 MOL     -0.485252
    130 C41         9.0410   -1.9330    0.2200 c3        1 MOL      0.092849
    131 C42         9.4200   -3.3750    0.6430 c3        1 MOL     -0.449514
    132 O20         8.9270   -1.9780   -1.2130 oh        1 MOL     -0.596224
    133 H60         6.7030   -2.8690   -0.4170 hn        1 MOL      0.286750
    134 H61         7.7000   -1.5370    1.9060 h1        1 MOL      0.126858
    135 H62         9.8010   -1.2060    0.5210 h1        1 MOL      0.091112
    136 H63         9.7180   -2.4700   -1.4390 ho        1 MOL      0.393047
    137 H64         9.3620   -3.6300    1.7060 hc        1 MOL      0.141460
    138 H65         8.8460   -4.0760    0.0350 hc        1 MOL      0.141460
    139 H66        10.4790   -3.5510    0.4290 hc        1 MOL      0.141460
    140 N12         7.1640    0.4890   -0.6620 n         1 MOL      0.112372
    141 C43         7.0490    1.8690   -1.0390 c3        1 MOL     -0.103409
    142 C44         5.8900    2.5760   -0.2880 c         1 MOL      0.270630
    143 O21         5.9680    3.7500    0.0740 o         1 MOL     -0.518031
    144 C45         6.7870    1.9240   -2.6060 c3        1 MOL     -0.344749
    145 C46         7.7410    1.1200   -3.5200 c3        1 MOL     -0.119088
    146 C47         9.2450    1.3080   -3.1690 c3        1 MOL      0.189370
    147 C48        10.0280    0.3650   -4.1220 c3        1 MOL     -0.009579
    148 N13        11.4390    0.7630   -4.2880 n4        1 MOL     -0.328854
    149 H67         7.1320   -0.1940   -1.4060 hn        1 MOL      0.235031
    150 H68         7.9900    2.3560   -0.7820 h1        1 MOL      0.088718
    151 H69         6.9640    2.9430   -2.9770 hc        1 MOL      0.144978
    152 H70         5.7480    1.6640   -2.7870 hc        1 MOL      0.144978
    153 H71         7.6590    1.4740   -4.5400 hc        1 MOL      0.046179
    154 H72         7.6320    0.0520   -3.2930 hc        1 MOL      0.046179
    155 H73         9.4910    1.1580   -2.1170 hc        1 MOL     -0.006268
    156 H74         9.5550    2.3370   -3.3430 hc        1 MOL     -0.006268
    157 H75         9.5080    0.3890   -5.0850 hx        1 MOL      0.073639
    158 H76         9.8710   -0.6710   -3.8130 hx        1 MOL      0.073639
    159 H77        11.9590    0.1590   -4.9090 hn        1 MOL      0.279748
    160 H78        11.4590    1.6560   -4.7590 hn        1 MOL      0.279748
    161 H79        11.9520    0.8220   -3.4140 hn        1 MOL      0.279748
    162 N14         4.8020    1.9460    0.0350 n         1 MOL      0.097188
    163 C49         3.7340    2.4970    0.9020 c3        1 MOL     -0.100754
    164 C50         4.0870    2.6320    2.4040 c         1 MOL      0.460783
    165 O22         3.5890    3.5390    3.0470 o         1 MOL     -0.542074
    166 C51         2.6240    1.4400    0.7990 c3        1 MOL      0.065860
    167 C52         1.9340    1.6690   -0.5590 c3        1 MOL     -0.322275
    168 C53         0.6820    0.7880   -0.6070 c         1 MOL      0.847321
    169 O23        -0.4570    1.3360   -0.7800 o         1 MOL     -0.765575
    170 O24         0.7410   -0.4220   -0.4610 o         1 MOL     -0.765575
    171 H80         4.7910    0.9550   -0.1360 hn        1 MOL     -0.036198
    172 H81         3.3200    3.4340    0.5380 h1        1 MOL      0.102481
    173 H82         1.8800    1.7200    1.5460 hc        1 MOL      0.079175
    174 H83         3.0110    0.4350    0.9190 hc        1 MOL      0.079175
    175 H84         2.6170    1.5220   -1.3980 hc        1 MOL      0.032802
    176 H85         1.6300    2.7170   -0.5910 hc        1 MOL      0.032802
    177 N15         4.9860    1.7690    2.8950 n         1 MOL     -0.079558
    178 C54         5.7410    2.0600    4.0930 c3        1 MOL     -0.374167
    179 H86         6.7790    2.2630    3.8280 h1        1 MOL      0.126581
    180 H87         5.3160    2.9330    4.5880 h1        1 MOL      0.126581
    181 H88         5.7000    1.2040    4.7670 h1        1 MOL      0.126581
    182 H89         5.1660    0.8980    2.4190 hn        1 MOL      0.171472
    183 Ca1        -1.7650   -0.8340   -1.2730 Ca        1 MOL      1.747937
    184 O25        -0.4020   -3.1000   -1.8760 oh        1 MOL     -0.877824
    185 H90        -0.2680   -3.4120   -2.7730 ho        1 MOL      0.395243
    186 H91        -0.8570   -3.8110   -1.4330 ho        1 MOL      0.395243
    187 O26        -0.2450    0.3570   -3.5870 oh        1 MOL     -0.877824
    188 H92        -0.8780    0.7280   -4.2050 ho        1 MOL      0.395243
    189 H93         0.5190    0.1300   -4.1330 ho        1 MOL      0.395243
@<TRIPOS>BOND
     1    1    2 1   
     2    1    4 1   
     3    1    5 1   
     4    1    6 1   
     5    2    3 2   
     6    2    7 1   
     7    7    8 1   
     8    7   15 1   
     9    8    9 1   
    10    8   11 1   
    11    8   16 1   
    12    9   10 2   
    13    9   19 1   
    14   11   12 1   
    15   11   17 1   
    16   11   18 1   
    17   12   13 1   
    18   12   14 1   
    19   19   20 1   
    20   19   28 1   
    21   20   21 1   
    22   20   23 1   
    23   20   29 1   
    24   21   22 2   
    25   21   41 1   
    26   23   24 1   
    27   23   30 1   
    28   23   31 1   
    29   24   25 1   
    30   24   32 1   
    31   24   33 1   
    32   25   26 1   
    33   25   34 1   
    34   25   35 1   
    35   26   27 1   
    36   26   36 1   
    37   26   37 1   
    38   27   38 1   
    39   27   39 1   
    40   27   40 1   
    41   41   42 1   
    42   41   49 1   
    43   42   43 1   
    44   42   45 1   
    45   42   50 1   
    46   43   44 2   
    47   43   53 1   
    48   45   46 1   
    49   45   51 1   
    50   45   52 1   
    51   46   47 1   
    52   46   48 1   
    53   53   54 1   
    54   53   57 1   
    55   54   55 1   
    56   54   58 1   
    57   54   59 1   
    58   55   56 2   
    59   55   60 1   
    60   60   61 1   
    61   60   68 1   
    62   61   62 1   
    63   61   64 1   
    64   61   69 1   
    65   62   63 2   
    66   62   72 1   
    67   64   65 1   
    68   64   70 1   
    69   64   71 1   
    70   65   66 1   
    71   65   67 1   
    72   72   73 1   
    73   72   76 1   
    74   73   74 1   
    75   73   77 1   
    76   73   78 1   
    77   74   75 2   
    78   74   79 1   
    79   79   80 1   
    80   79   86 1   
    81   80   81 1   
    82   80   83 1   
    83   80   87 1   
    84   81   82 2   
    85   81   93 1   
    86   83   84 1   
    87   83   85 1   
    88   83   88 1   
    89   84   90 1   
    90   84   91 1   
    91   84   92 1   
    92   85   89 1   
    93   93   94 1   
    94   93  101 1   
    95   94   95 1   
    96   94   97 1   
    97   94  102 1   
    98   95   96 2   
    99   95  112 1   
   100   97   98 1   
   101   97   99 1   
   102   97  103 1   
   103   98  100 1   
   104   98  104 1   
   105   98  105 1   
   106   99  106 1   
   107   99  107 1   
   108   99  108 1   
   109  100  109 1   
   110  100  110 1   
   111  100  111 1   
   112  112  113 1   
   113  112  119 1   
   114  113  114 1   
   115  113  116 1   
   116  113  120 1   
   117  114  115 2   
   118  114  126 1   
   119  116  117 1   
   120  116  118 1   
   121  116  121 1   
   122  117  123 1   
   123  117  124 1   
   124  117  125 1   
   125  118  122 1   
   126  126  127 1   
   127  126  133 1   
   128  127  128 1   
   129  127  130 1   
   130  127  134 1   
   131  128  129 2   
   132  128  140 1   
   133  130  131 1   
   134  130  132 1   
   135  130  135 1   
   136  131  137 1   
   137  131  138 1   
   138  131  139 1   
   139  132  136 1   
   140  140  141 1   
   141  140  149 1   
   142  141  142 1   
   143  141  144 1   
   144  141  150 1   
   145  142  143 2   
   146  142  162 1   
   147  144  145 1   
   148  144  151 1   
   149  144  152 1   
   150  145  146 1   
   151  145  153 1   
   152  145  154 1   
   153  146  147 1   
   154  146  155 1   
   155  146  156 1   
   156  147  148 1   
   157  147  157 1   
   158  147  158 1   
   159  148  159 1   
   160  148  160 1   
   161  148  161 1   
   162  162  163 1   
   163  162  171 1   
   164  163  164 1   
   165  163  166 1   
   166  163  172 1   
   167  164  165 2   
   168  164  177 1   
   169  166  167 1   
   170  166  173 1   
   171  166  174 1   
   172  167  168 1   
   173  167  175 1   
   174  167  176 1   
   175  168  169 1   
   176  168  170 1   
   177  177  178 1   
   178  177  182 1   
   179  178  179 1   
   180  178  180 1   
   181  178  181 1   
   182  184  185 1   
   183  184  186 1   
   184  187  188 1   
   185  187  189 1   
@<TRIPOS>SUBSTRUCTURE
     1 MOL         1 TEMP              0 ****  ****    0 ROOT
