@<TRIPOS>MOLECULE
MOL
  189   185     1     0     0
SMALL
resp


@<TRIPOS>ATOM
      1 C1         -0.1910    1.8790    6.0020 c3        1 MOL     -0.242055
      2 C2         -0.4050    1.5440    4.4690 c         1 MOL      0.628601
      3 O1          0.4020    2.0100    3.6450 o         1 MOL     -0.570307
      4 H1         -0.5700    1.0570    6.6090 hc        1 MOL      0.065998
      5 H2          0.8720    2.0160    6.2000 hc        1 MOL      0.065998
      6 H3         -0.7270    2.7940    6.2530 hc        1 MOL      0.065998
      7 N1         -1.6050    0.9570    4.1690 n         1 MOL     -0.617309
      8 C3         -2.2260    0.9590    2.8150 c3        1 MOL      0.311605
      9 C4         -2.6430    2.3810    2.3960 c         1 MOL      0.387568
     10 O2         -3.8100    2.8050    2.5720 o         1 MOL     -0.505977
     11 C5         -3.3350   -0.1170    2.7080 c3        1 MOL     -0.146651
     12 C6         -4.1350   -0.0890    1.3820 c         1 MOL      0.518963
     13 O3         -5.2990   -0.5890    1.4440 o         1 MOL     -0.561761
     14 O4         -3.6900    0.4360    0.3640 o         1 MOL     -0.561761
     15 H4         -2.1720    0.6390    4.9450 hn        1 MOL      0.334419
     16 H5         -1.4500    0.6610    2.1050 h1        1 MOL     -0.071902
     17 H6         -3.9960    0.0560    3.5670 hc        1 MOL      0.031762
     18 H7         -2.8000   -1.0420    2.9320 hc        1 MOL      0.031762
     19 N2         -1.7210    3.2320    1.9340 n         1 MOL     -0.248337
     20 C7         -1.9320    4.7090    1.6170 c3        1 MOL     -0.002964
     21 C8         -2.9980    4.9850    0.5590 c         1 MOL      0.485361
     22 O5         -3.6980    5.9770    0.6720 o         1 MOL     -0.576975
     23 C9         -0.6620    5.4310    1.2470 c3        1 MOL     -0.082636
     24 C10        -0.5200    6.9290    1.6000 c3        1 MOL      0.059032
     25 C11         0.7630    7.5570    0.9480 c3        1 MOL      0.034651
     26 C12         0.9700    8.9670    1.4230 c3        1 MOL      0.049809
     27 N3          2.1300    9.7180    0.8920 n4        1 MOL     -0.285295
     28 H8         -0.8680    2.7050    1.7780 hn        1 MOL      0.236791
     29 H9         -2.3190    5.1730    2.5240 h1        1 MOL      0.072456
     30 H10        -0.4970    5.2840    0.1790 hc        1 MOL      0.027997
     31 H11         0.1290    4.8540    1.7120 hc        1 MOL      0.027997
     32 H12        -0.5000    7.1430    2.6760 hc        1 MOL      0.017503
     33 H13        -1.3670    7.5140    1.2320 hc        1 MOL      0.017503
     34 H14         0.6650    7.4840   -0.1280 hc        1 MOL      0.003544
     35 H15         1.6640    7.0420    1.2820 hc        1 MOL      0.003544
     36 H16         1.0550    8.8970    2.5040 hx        1 MOL      0.064583
     37 H17         0.0260    9.4480    1.1610 hx        1 MOL      0.064583
     38 H18         3.0260    9.5380    1.3110 hn        1 MOL      0.306086
     39 H19         2.2300    9.5950   -0.1100 hn        1 MOL      0.306086
     40 H20         1.9910   10.7150    0.9800 hn        1 MOL      0.306086
     41 N4         -3.1440    4.1300   -0.4660 n         1 MOL     -0.200718
     42 C13        -4.0360    4.3730   -1.7010 c3        1 MOL      0.030115
     43 C14        -5.4370    3.6060   -1.5870 c         1 MOL      0.423917
     44 O6         -6.3860    4.0050   -2.2400 o         1 MOL     -0.531680
     45 C15        -3.4230    4.1240   -3.0660 c3        1 MOL     -0.271477
     46 C16        -2.6860    2.8400   -3.1750 c         1 MOL      0.845829
     47 O7         -2.8840    1.9860   -2.2710 o         1 MOL     -0.748984
     48 O8         -1.8910    2.5910   -4.1230 o         1 MOL     -0.748984
     49 H21        -2.6120    3.2650   -0.4680 hn        1 MOL      0.155737
     50 H22        -4.2510    5.4390   -1.7270 h1        1 MOL      0.079176
     51 H23        -2.6700    4.9120   -3.1450 hc        1 MOL      0.065808
     52 H24        -4.1340    4.2920   -3.8770 hc        1 MOL      0.065808
     53 N5         -5.5320    2.5890   -0.7010 n         1 MOL     -0.034634
     54 C17        -6.7480    2.0740   -0.1060 c3        1 MOL     -0.320082
     55 C18        -7.3880    0.8500   -0.8450 c         1 MOL      0.718461
     56 O9         -8.5810    0.6780   -0.8330 o         1 MOL     -0.595266
     57 H25        -4.6900    2.3170   -0.2180 hn        1 MOL      0.114747
     58 H26        -7.4880    2.8820   -0.0990 h1        1 MOL      0.124408
     59 H27        -6.4910    1.7620    0.9090 h1        1 MOL      0.124408
     60 N6         -6.5450    0.0200   -1.3870 n         1 MOL     -0.411947
     61 C19        -6.9550   -1.2630   -2.1000 c3        1 MOL     -0.001294
     62 C20        -7.0470   -2.5120   -1.2370 c         1 MOL      0.448995
     63 O10        -7.4730   -3.5370   -1.7170 o         1 MOL     -0.564081
     64 C21        -5.9270   -1.5100   -3.2680 c3        1 MOL     -0.226649
     65 C22        -4.4680   -1.3950   -2.7780 c         1 MOL      0.798061
     66 O11        -4.2110   -1.7630   -1.6090 o         1 MOL     -0.774572
     67 O12        -3.5200   -0.9300   -3.4840 o         1 MOL     -0.774572
     68 H28        -5.6140    0.1270   -0.9980 hn        1 MOL      0.170381
     69 H29        -7.9570   -1.1810   -2.5290 h1        1 MOL      0.130561
     70 H30        -5.9690   -0.9590   -4.2110 hc        1 MOL      0.068259
     71 H31        -6.0620   -2.5200   -3.6480 hc        1 MOL      0.068259
     72 N7         -6.7070   -2.4710    0.0410 n         1 MOL     -0.176351
     73 C23        -6.6510   -3.6040    1.0410 c3        1 MOL     -0.180193
     74 C24        -5.3540   -4.4410    0.9470 c         1 MOL      0.523743
     75 O13        -5.3530   -5.6120    1.4940 o         1 MOL     -0.574102
     76 H32        -6.2600   -1.6200    0.3590 hn        1 MOL      0.166622
     77 H33        -7.5220   -4.2410    0.8980 h1        1 MOL      0.113362
     78 H34        -6.7410   -3.1940    2.0470 h1        1 MOL      0.113362
     79 N8         -4.2790   -3.9730    0.2520 n         1 MOL     -0.280512
     80 C25        -2.9280   -4.5790    0.3820 c3        1 MOL     -0.121871
     81 C26        -1.7950   -3.5970    0.5890 c         1 MOL      0.771050
     82 O14        -1.8950   -2.4360    0.2460 o         1 MOL     -0.601193
     83 C27        -2.5520   -5.4890   -0.7570 c3        1 MOL      0.364310
     84 C28        -3.3680   -6.7990   -0.7140 c3        1 MOL     -0.448637
     85 O15        -2.6350   -4.8650   -2.0200 oh        1 MOL     -0.673336
     86 H35        -4.3150   -3.0720   -0.2020 hn        1 MOL      0.267022
     87 H36        -2.9610   -5.1600    1.3040 h1        1 MOL      0.076160
     88 H37        -1.5500   -5.8980   -0.6480 h1        1 MOL      0.036779
     89 H38        -3.4420   -5.0930   -2.5020 ho        1 MOL      0.443702
     90 H39        -4.4050   -6.5160   -0.8700 hc        1 MOL      0.120705
     91 H40        -3.0870   -7.3470   -1.6100 hc        1 MOL      0.120705
     92 H41        -3.2160   -7.3490    0.2250 hc        1 MOL      0.120705
     93 N9         -0.6700   -4.0560    1.1390 n         1 MOL     -0.703078
     94 C29         0.5910   -3.3580    1.4040 c3        1 MOL      0.131489
     95 C30         1.6450   -3.8740    0.4080 c         1 MOL      0.535342
     96 O16         1.8940   -5.0300    0.4080 o         1 MOL     -0.560135
     97 C31         0.9700   -3.4670    2.8520 c3        1 MOL      0.151882
     98 C32        -0.0220   -2.6610    3.6610 c3        1 MOL      0.055549
     99 C33         2.4100   -3.0810    3.1480 c3        1 MOL     -0.156208
    100 C34         0.3250   -2.9360    5.1290 c3        1 MOL     -0.383610
    101 H42        -0.5920   -5.0380    1.3670 hn        1 MOL      0.293718
    102 H43         0.5010   -2.2800    1.2520 h1        1 MOL      0.032942
    103 H44         0.9390   -4.5140    3.1670 hc        1 MOL      0.005418
    104 H45        -1.0560   -2.8750    3.3980 hc        1 MOL      0.026765
    105 H46         0.0910   -1.5910    3.4950 hc        1 MOL      0.026765
    106 H47         2.9430   -3.8470    2.5840 hc        1 MOL      0.017093
    107 H48         2.6460   -2.1020    2.7100 hc        1 MOL      0.017093
    108 H49         2.6400   -3.1880    4.2080 hc        1 MOL      0.017093
    109 H50        -0.5080   -2.7430    5.7970 hc        1 MOL      0.091974
    110 H51         0.5620   -3.9950    5.2060 hc        1 MOL      0.091974
    111 H52         1.1800   -2.3200    5.4160 hc        1 MOL      0.091974
    112 N10         2.2590   -2.9730   -0.3450 n         1 MOL     -0.180741
    113 C35         3.4370   -3.0150   -1.2350 c3        1 MOL     -0.127372
    114 C36         4.7360   -2.8900   -0.4310 c         1 MOL      0.427626
    115 O17         4.6340   -2.5190    0.7420 o         1 MOL     -0.369033
    116 C37         3.4230   -1.8160   -2.2250 c3        1 MOL      0.114331
    117 C38         2.2450   -2.0230   -3.2170 c3        1 MOL     -0.158770
    118 O18         3.1720   -0.5840   -1.6200 oh        1 MOL     -0.439759
    119 H53         1.9090   -2.0400   -0.1870 hn        1 MOL      0.160083
    120 H54         3.5330   -3.9760   -1.7320 h1        1 MOL      0.091036
    121 H55         4.3710   -1.7210   -2.7570 h1        1 MOL      0.032280
    122 H56         2.2760   -0.6510   -1.2810 ho        1 MOL      0.273771
    123 H57         2.3530   -2.8610   -3.8950 hc        1 MOL      0.045313
    124 H58         1.2970   -2.0690   -2.6890 hc        1 MOL      0.045313
    125 H59         2.1330   -1.1330   -3.8500 hc        1 MOL      0.045313
    126 N11         5.9170   -3.0280   -1.0990 n         1 MOL     -0.225788
    127 C39         7.1820   -2.7490   -0.4580 c3        1 MOL     -0.443620
    128 C40         7.2690   -1.2900   -0.0050 c         1 MOL      0.537110
    129 O19         7.8990   -0.9570    1.0020 o         1 MOL     -0.493962
    130 C41         8.4350   -3.0970   -1.2770 c3        1 MOL      0.498010
    131 C42         8.1670   -4.4250   -1.9600 c3        1 MOL     -0.513294
    132 O20         8.7170   -2.2350   -2.3140 oh        1 MOL     -0.672524
    133 H60         5.9180   -3.4300   -2.0230 hn        1 MOL      0.247446
    134 H61         7.2080   -3.3260    0.4720 h1        1 MOL      0.185579
    135 H62         9.3330   -3.1470   -0.6690 h1        1 MOL      0.025147
    136 H63         9.3680   -2.5970   -2.9230 ho        1 MOL      0.415176
    137 H64         7.5150   -4.3200   -2.8340 hc        1 MOL      0.135301
    138 H65         9.1340   -4.8360   -2.2140 hc        1 MOL      0.135301
    139 H66         7.7190   -5.1730   -1.3000 hc        1 MOL      0.135301
    140 N12         6.6290   -0.3430   -0.7090 n         1 MOL     -0.289432
    141 C43         6.7480    1.0890   -0.3660 c3        1 MOL     -0.087121
    142 C44         6.0320    1.3490    0.9600 c         1 MOL      0.333371
    143 O21         6.5410    1.9690    1.9030 o         1 MOL     -0.490892
    144 C45         6.3240    2.0530   -1.5050 c3        1 MOL     -0.062456
    145 C46         7.2290    1.9460   -2.7380 c3        1 MOL      0.158593
    146 C47         6.6950    2.7960   -3.8850 c3        1 MOL      0.048261
    147 C48         7.4590    2.7680   -5.1730 c3        1 MOL     -0.003276
    148 N13         8.1380    4.0710   -5.4330 n4        1 MOL     -0.452731
    149 H67         6.0730   -0.6380   -1.4960 hn        1 MOL      0.287564
    150 H68         7.7820    1.3030   -0.1030 h1        1 MOL      0.109698
    151 H69         6.2720    3.1060   -1.2200 hc        1 MOL      0.033524
    152 H70         5.3130    1.7910   -1.7980 hc        1 MOL      0.033524
    153 H71         7.4450    0.9270   -3.0640 hc        1 MOL     -0.038241
    154 H72         8.1860    2.3860   -2.4760 hc        1 MOL     -0.038241
    155 H73         6.5740    3.7920   -3.4630 hc        1 MOL      0.001699
    156 H74         5.6790    2.4200   -4.0700 hc        1 MOL      0.001699
    157 H75         6.6590    2.5810   -5.8920 hx        1 MOL      0.101985
    158 H76         8.0620    1.8680   -5.2830 hx        1 MOL      0.101985
    159 H77         8.8400    4.2610   -4.7380 hn        1 MOL      0.325030
    160 H78         8.5550    4.0510   -6.3550 hn        1 MOL      0.325030
    161 H79         7.4480    4.8060   -5.4030 hn        1 MOL      0.325030
    162 N14         4.7970    0.8410    1.0570 n         1 MOL     -0.086977
    163 C49         3.9330    0.8980    2.2460 c3        1 MOL     -0.221381
    164 C50         4.5080    0.0630    3.3790 c         1 MOL      0.470476
    165 O22         4.3830    0.4570    4.5700 o         1 MOL     -0.562083
    166 C51         2.5670    0.4470    1.7730 c3        1 MOL      0.182014
    167 C52         1.7880    1.3590    0.7270 c3        1 MOL     -0.202169
    168 C53         0.5750    0.6370    0.0470 c         1 MOL      0.687347
    169 O23         0.5920   -0.5230   -0.4430 o         1 MOL     -0.667626
    170 O24        -0.4810    1.3000   -0.0710 o         1 MOL     -0.667626
    171 H80         4.4810    0.3310    0.2460 hn        1 MOL      0.112078
    172 H81         3.9410    1.9290    2.6130 h1        1 MOL      0.133365
    173 H82         1.9240    0.2420    2.6220 hc        1 MOL      0.029454
    174 H83         2.7070   -0.5400    1.3290 hc        1 MOL      0.029454
    175 H84         2.4370    1.7570   -0.0540 hc        1 MOL      0.036065
    176 H85         1.4840    2.2750    1.2360 hc        1 MOL      0.036065
    177 N15         5.2110   -1.0640    3.1350 n         1 MOL     -0.060299
    178 C54         5.9870   -1.8710    4.1580 c3        1 MOL     -0.265659
    179 H86         5.3780   -2.7090    4.4970 h1        1 MOL      0.107651
    180 H87         6.9040   -2.2490    3.7040 h1        1 MOL      0.107651
    181 H88         6.2370   -1.2360    5.0090 h1        1 MOL      0.107651
    182 H89         5.2280   -1.3270    2.1640 hn        1 MOL      0.115982
    183 Ca1        -1.9720   -0.3330   -1.4550 Ca        1 MOL      1.741286
    184 O25        -1.2380   -2.5120   -2.7520 oh        1 MOL     -0.833210
    185 H90        -1.6570   -2.6350   -3.6060 ho        1 MOL      0.402026
    186 H91        -1.5660   -3.2270   -2.2110 ho        1 MOL      0.402026
    187 O26        -0.2190    0.6160   -3.2560 oh        1 MOL     -0.833210
    188 H92        -0.1070   -0.0260   -3.9500 ho        1 MOL      0.402026
    189 H93        -0.6390    1.3650   -3.6880 ho        1 MOL      0.402026
@<TRIPOS>BOND
     1    1    2 1   
     2    1    4 1   
     3    1    5 1   
     4    1    6 1   
     5    2    3 2   
     6    2    7 1   
     7    7    8 1   
     8    7   15 1   
     9    8    9 1   
    10    8   11 1   
    11    8   16 1   
    12    9   10 2   
    13    9   19 1   
    14   11   12 1   
    15   11   17 1   
    16   11   18 1   
    17   12   13 1   
    18   12   14 1   
    19   19   20 1   
    20   19   28 1   
    21   20   21 1   
    22   20   23 1   
    23   20   29 1   
    24   21   22 2   
    25   21   41 1   
    26   23   24 1   
    27   23   30 1   
    28   23   31 1   
    29   24   25 1   
    30   24   32 1   
    31   24   33 1   
    32   25   26 1   
    33   25   34 1   
    34   25   35 1   
    35   26   27 1   
    36   26   36 1   
    37   26   37 1   
    38   27   38 1   
    39   27   39 1   
    40   27   40 1   
    41   41   42 1   
    42   41   49 1   
    43   42   43 1   
    44   42   45 1   
    45   42   50 1   
    46   43   44 2   
    47   43   53 1   
    48   45   46 1   
    49   45   51 1   
    50   45   52 1   
    51   46   47 1   
    52   46   48 1   
    53   53   54 1   
    54   53   57 1   
    55   54   55 1   
    56   54   58 1   
    57   54   59 1   
    58   55   56 2   
    59   55   60 1   
    60   60   61 1   
    61   60   68 1   
    62   61   62 1   
    63   61   64 1   
    64   61   69 1   
    65   62   63 2   
    66   62   72 1   
    67   64   65 1   
    68   64   70 1   
    69   64   71 1   
    70   65   66 1   
    71   65   67 1   
    72   72   73 1   
    73   72   76 1   
    74   73   74 1   
    75   73   77 1   
    76   73   78 1   
    77   74   75 2   
    78   74   79 1   
    79   79   80 1   
    80   79   86 1   
    81   80   81 1   
    82   80   83 1   
    83   80   87 1   
    84   81   82 2   
    85   81   93 1   
    86   83   84 1   
    87   83   85 1   
    88   83   88 1   
    89   84   90 1   
    90   84   91 1   
    91   84   92 1   
    92   85   89 1   
    93   93   94 1   
    94   93  101 1   
    95   94   95 1   
    96   94   97 1   
    97   94  102 1   
    98   95   96 2   
    99   95  112 1   
   100   97   98 1   
   101   97   99 1   
   102   97  103 1   
   103   98  100 1   
   104   98  104 1   
   105   98  105 1   
   106   99  106 1   
   107   99  107 1   
   108   99  108 1   
   109  100  109 1   
   110  100  110 1   
   111  100  111 1   
   112  112  113 1   
   113  112  119 1   
   114  113  114 1   
   115  113  116 1   
   116  113  120 1   
   117  114  115 2   
   118  114  126 1   
   119  116  117 1   
   120  116  118 1   
   121  116  121 1   
   122  117  123 1   
   123  117  124 1   
   124  117  125 1   
   125  118  122 1   
   126  126  127 1   
   127  126  133 1   
   128  127  128 1   
   129  127  130 1   
   130  127  134 1   
   131  128  129 2   
   132  128  140 1   
   133  130  131 1   
   134  130  132 1   
   135  130  135 1   
   136  131  137 1   
   137  131  138 1   
   138  131  139 1   
   139  132  136 1   
   140  140  141 1   
   141  140  149 1   
   142  141  142 1   
   143  141  144 1   
   144  141  150 1   
   145  142  143 2   
   146  142  162 1   
   147  144  145 1   
   148  144  151 1   
   149  144  152 1   
   150  145  146 1   
   151  145  153 1   
   152  145  154 1   
   153  146  147 1   
   154  146  155 1   
   155  146  156 1   
   156  147  148 1   
   157  147  157 1   
   158  147  158 1   
   159  148  159 1   
   160  148  160 1   
   161  148  161 1   
   162  162  163 1   
   163  162  171 1   
   164  163  164 1   
   165  163  166 1   
   166  163  172 1   
   167  164  165 2   
   168  164  177 1   
   169  166  167 1   
   170  166  173 1   
   171  166  174 1   
   172  167  168 1   
   173  167  175 1   
   174  167  176 1   
   175  168  169 1   
   176  168  170 1   
   177  177  178 1   
   178  177  182 1   
   179  178  179 1   
   180  178  180 1   
   181  178  181 1   
   182  184  185 1   
   183  184  186 1   
   184  187  188 1   
   185  187  189 1   
@<TRIPOS>SUBSTRUCTURE
     1 MOL         1 TEMP              0 ****  ****    0 ROOT
