@<TRIPOS>MOLECULE
MOL
  189   185     1     0     0
SMALL
resp


@<TRIPOS>ATOM
      1 C1         -0.2940    3.0170    5.2590 c3        1 MOL     -0.412097
      2 C2         -0.6230    2.8050    3.7470 c         1 MOL      0.652515
      3 O1          0.1740    3.1280    2.8080 o         1 MOL     -0.578895
      4 H1          0.7770    2.8930    5.4180 hc        1 MOL      0.112840
      5 H2         -0.5920    4.0220    5.5590 hc        1 MOL      0.112840
      6 H3         -0.8360    2.2830    5.8560 hc        1 MOL      0.112840
      7 N1         -1.8070    2.2150    3.4590 n         1 MOL     -0.488983
      8 C3         -2.3820    1.8220    2.1060 c3        1 MOL      0.110370
      9 C4         -2.8580    3.0190    1.3960 c         1 MOL      0.275894
     10 O2         -3.8870    3.5660    1.8180 o         1 MOL     -0.530816
     11 C5         -3.5100    0.8210    2.1960 c3        1 MOL     -0.127134
     12 C6         -4.2170    0.4150    0.8880 c         1 MOL      0.650160
     13 O3         -5.3940   -0.0900    0.9450 o         1 MOL     -0.657541
     14 O4         -3.4960    0.4710   -0.1230 o         1 MOL     -0.657541
     15 H4         -2.2850    1.8940    4.2960 hn        1 MOL      0.295979
     16 H5         -1.5320    1.4630    1.5340 h1        1 MOL      0.017732
     17 H6         -4.1870    1.1720    2.9820 hc        1 MOL      0.029589
     18 H7         -3.1880   -0.1070    2.6580 hc        1 MOL      0.029589
     19 N2         -2.0310    3.5390    0.4820 n         1 MOL      0.107666
     20 C7         -2.1860    4.8110   -0.1980 c3        1 MOL      0.018506
     21 C8         -2.6910    4.8370   -1.6430 c         1 MOL      0.518799
     22 O5         -2.8560    5.9110   -2.2780 o         1 MOL     -0.579613
     23 C9         -0.9330    5.6480    0.0510 c3        1 MOL     -0.043754
     24 C10        -0.8430    6.4090    1.3870 c3        1 MOL     -0.033459
     25 C11        -2.0920    7.2790    1.6930 c3        1 MOL     -0.246247
     26 C12        -1.7340    7.9880    2.9840 c3        1 MOL      0.253652
     27 N3         -2.8330    8.7540    3.6430 n4        1 MOL     -0.458264
     28 H8         -1.3300    2.9040    0.1120 hn        1 MOL      0.117425
     29 H9         -3.0810    5.2710    0.2130 h1        1 MOL      0.018117
     30 H10        -0.9090    6.4170   -0.7110 hc        1 MOL      0.033767
     31 H11        -0.0430    5.0400   -0.0980 hc        1 MOL      0.033767
     32 H12         0.0430    7.0350    1.4150 hc        1 MOL      0.043967
     33 H13        -0.6370    5.6370    2.1400 hc        1 MOL      0.043967
     34 H14        -2.9400    6.6260    1.9370 hc        1 MOL      0.095994
     35 H15        -2.3290    7.9770    0.8920 hc        1 MOL      0.095994
     36 H16        -0.8570    8.6220    2.8590 hx        1 MOL      0.023174
     37 H17        -1.3920    7.2790    3.7280 hx        1 MOL      0.023174
     38 H18        -2.4670    9.3390    4.3750 hn        1 MOL      0.344038
     39 H19        -3.3430    9.3270    2.9760 hn        1 MOL      0.344038
     40 H20        -3.4580    8.1290    4.1240 hn        1 MOL      0.344038
     41 N4         -3.2210    3.7280   -2.0490 n         1 MOL     -0.285538
     42 C13        -3.9620    3.4710   -3.2570 c3        1 MOL      0.061402
     43 C14        -5.0640    2.4090   -3.0390 c         1 MOL      0.434183
     44 O6         -5.6330    1.8720   -4.0670 o         1 MOL     -0.500239
     45 C15        -3.0080    3.0650   -4.3990 c3        1 MOL     -0.271256
     46 C16        -2.0150    1.9240   -4.0140 c         1 MOL      0.905647
     47 O7         -0.9510    1.9020   -4.6240 o         1 MOL     -0.720048
     48 O8         -2.3160    1.1300   -3.0960 o         1 MOL     -0.720048
     49 H21        -3.2150    3.0830   -1.2690 hn        1 MOL      0.055224
     50 H22        -4.4620    4.3860   -3.5930 h1        1 MOL      0.084610
     51 H23        -2.4050    3.9530   -4.5830 hc        1 MOL      0.062332
     52 H24        -3.5740    2.7580   -5.2840 hc        1 MOL      0.062332
     53 N5         -5.4160    2.0320   -1.8190 n         1 MOL     -0.345741
     54 C17        -6.8270    1.6960   -1.4650 c3        1 MOL     -0.375292
     55 C18        -7.2660    0.2920   -1.8670 c         1 MOL      0.622964
     56 O9         -8.4280    0.0500   -1.9990 o         1 MOL     -0.588743
     57 H25        -4.9000    2.3120   -1.0010 hn        1 MOL      0.336236
     58 H26        -7.3560    2.3930   -2.1000 h1        1 MOL      0.163655
     59 H27        -7.1130    1.8600   -0.4260 h1        1 MOL      0.163655
     60 N6         -6.3670   -0.6770   -2.0980 n         1 MOL     -0.238556
     61 C19        -6.6580   -2.1270   -2.3770 c3        1 MOL     -0.096840
     62 C20        -6.8540   -3.0460   -1.1510 c         1 MOL      0.341274
     63 O10        -7.5050   -4.1270   -1.2640 o         1 MOL     -0.540722
     64 C21        -5.4330   -2.7060   -3.0870 c3        1 MOL     -0.234791
     65 C22        -4.1070   -2.3190   -2.4610 c         1 MOL      0.698901
     66 O11        -3.2690   -1.6290   -3.1390 o         1 MOL     -0.743093
     67 O12        -3.8410   -2.5120   -1.2690 o         1 MOL     -0.743093
     68 H28        -5.4210   -0.4340   -1.8400 hn        1 MOL      0.258973
     69 H29        -7.4480   -2.2030   -3.1340 h1        1 MOL      0.151622
     70 H30        -5.4650   -2.3800   -4.1310 hc        1 MOL      0.087837
     71 H31        -5.4020   -3.7940   -3.0970 hc        1 MOL      0.087837
     72 N7         -6.4580   -2.6160    0.0270 n         1 MOL     -0.023903
     73 C23        -6.6900   -3.2710    1.2840 c3        1 MOL     -0.105479
     74 C24        -5.5260   -3.9960    1.8530 c         1 MOL      0.583656
     75 O13        -5.7200   -4.9450    2.6440 o         1 MOL     -0.598916
     76 H32        -6.1220   -1.6760    0.1590 hn        1 MOL      0.173508
     77 H33        -7.4810   -4.0200    1.1840 h1        1 MOL      0.063726
     78 H34        -6.9660   -2.5710    2.0700 h1        1 MOL      0.063726
     79 N8         -4.3320   -3.7600    1.2990 n         1 MOL     -0.311408
     80 C25        -3.0200   -4.4890    1.4370 c3        1 MOL     -0.235289
     81 C26        -1.8880   -3.5040    1.2990 c         1 MOL      0.667755
     82 O14        -1.9950   -2.4540    0.6870 o         1 MOL     -0.595457
     83 C27        -2.8210   -5.6500    0.5040 c3        1 MOL      0.497037
     84 C28        -3.5890   -6.8820    0.9390 c3        1 MOL     -0.356525
     85 O15        -3.2420   -5.2440   -0.7700 oh        1 MOL     -0.661846
     86 H35        -4.2630   -3.0200    0.6120 hn        1 MOL      0.248739
     87 H36        -2.9940   -4.7290    2.5030 h1        1 MOL      0.093539
     88 H37        -1.7520   -5.8510    0.5110 h1        1 MOL     -0.042318
     89 H38        -3.4970   -4.3260   -0.6560 ho        1 MOL      0.458373
     90 H39        -3.8160   -7.6410    0.1750 hc        1 MOL      0.093069
     91 H40        -3.0150   -7.4510    1.6630 hc        1 MOL      0.093069
     92 H41        -4.5870   -6.6360    1.3180 hc        1 MOL      0.093069
     93 N9         -0.7550   -3.7500    2.0510 n         1 MOL     -0.625197
     94 C29         0.2660   -2.6670    2.3210 c3        1 MOL     -0.080038
     95 C30         1.5970   -3.1640    1.7200 c         1 MOL      0.587098
     96 O16         2.0020   -4.2850    2.0210 o         1 MOL     -0.575895
     97 C31         0.3380   -2.3260    3.7990 c3        1 MOL      0.157653
     98 C32        -0.9710   -1.9830    4.5330 c3        1 MOL      0.271760
     99 C33         1.4550   -1.2580    3.8910 c3        1 MOL     -0.383397
    100 C34        -0.7850   -2.2200    6.0700 c3        1 MOL     -0.260088
    101 H42        -0.6410   -4.5930    2.5980 hn        1 MOL      0.325604
    102 H43         0.0200   -1.7660    1.7690 h1        1 MOL      0.120198
    103 H44         0.7760   -3.1440    4.3800 hc        1 MOL      0.004252
    104 H45        -1.8370   -2.5550    4.2260 hc        1 MOL     -0.042681
    105 H46        -1.2270   -0.9290    4.4090 hc        1 MOL     -0.042681
    106 H47         1.5740   -1.1190    4.9640 hc        1 MOL      0.063352
    107 H48         2.3540   -1.4600    3.3180 hc        1 MOL      0.063352
    108 H49         1.1420   -0.2740    3.5190 hc        1 MOL      0.063352
    109 H50        -0.9430   -3.2540    6.3700 hc        1 MOL      0.051984
    110 H51         0.2500   -2.0130    6.3690 hc        1 MOL      0.051984
    111 H52        -1.4870   -1.5560    6.5790 hc        1 MOL      0.051984
    112 N10         2.2740   -2.4680    0.8210 n         1 MOL     -0.154101
    113 C35         3.5180   -2.9080    0.1020 c3        1 MOL     -0.076127
    114 C36         4.8800   -2.4550    0.7150 c         1 MOL      0.400970
    115 O17         4.9120   -1.5910    1.5680 o         1 MOL     -0.296635
    116 C37         3.5470   -2.3910   -1.3660 c3        1 MOL     -0.024053
    117 C38         2.2280   -2.6650   -2.0760 c3        1 MOL     -0.227837
    118 O18         3.8120   -1.0300   -1.3300 oh        1 MOL     -0.413488
    119 H53         1.8190   -1.6900    0.3700 hn        1 MOL      0.151297
    120 H54         3.5000   -3.9950    0.1070 h1        1 MOL      0.082553
    121 H55         4.3530   -2.9070   -1.8940 h1        1 MOL      0.051394
    122 H56         3.4580   -0.7070   -2.1580 ho        1 MOL      0.369049
    123 H57         1.8560   -3.6930   -1.9920 hc        1 MOL      0.090011
    124 H58         1.4060   -1.9820   -1.8540 hc        1 MOL      0.090011
    125 H59         2.4740   -2.6580   -3.1360 hc        1 MOL      0.090011
    126 N11         6.0190   -3.0190    0.2330 n         1 MOL     -0.349582
    127 C39         7.3760   -2.5230    0.4320 c3        1 MOL     -0.168697
    128 C40         7.4940   -0.9940    0.3560 c         1 MOL      0.408886
    129 O19         7.9030   -0.3300    1.3210 o         1 MOL     -0.489877
    130 C41         8.4910   -3.1850   -0.3630 c3        1 MOL      0.280209
    131 C42         8.6730   -4.6130    0.1300 c3        1 MOL     -0.380099
    132 O20         8.1690   -3.1470   -1.7450 oh        1 MOL     -0.618706
    133 H60         5.9430   -3.8460   -0.3550 hn        1 MOL      0.308527
    134 H61         7.6120   -2.8480    1.4470 h1        1 MOL      0.141438
    135 H62         9.3920   -2.6180   -0.1100 h1        1 MOL      0.050746
    136 H63         8.9200   -3.2230   -2.3300 ho        1 MOL      0.403374
    137 H64         9.5980   -4.9190   -0.3630 hc        1 MOL      0.114665
    138 H65         8.8740   -4.7310    1.1940 hc        1 MOL      0.114665
    139 H66         7.8200   -5.2150   -0.1750 hc        1 MOL      0.114665
    140 N12         7.0890   -0.3320   -0.6990 n         1 MOL     -0.493511
    141 C43         7.1670    1.1600   -0.6900 c3        1 MOL      0.075492
    142 C44         6.1170    1.9550    0.1850 c         1 MOL      0.325853
    143 O21         6.4770    3.0490    0.6120 o         1 MOL     -0.486318
    144 C45         7.1990    1.6910   -2.1580 c3        1 MOL     -0.251471
    145 C46         8.3810    1.2400   -2.9700 c3        1 MOL      0.288994
    146 C47         8.3950    1.6370   -4.4750 c3        1 MOL     -0.074209
    147 C48         9.5070    1.0410   -5.3420 c3        1 MOL     -0.026198
    148 N13        10.8480    1.3750   -4.7750 n4        1 MOL     -0.282525
    149 H67         6.8230   -0.8910   -1.4930 hn        1 MOL      0.353758
    150 H68         8.1310    1.4290   -0.2570 h1        1 MOL      0.119781
    151 H69         7.4090    2.7600   -2.0730 hc        1 MOL      0.065669
    152 H70         6.2520    1.4550   -2.6420 hc        1 MOL      0.065669
    153 H71         8.2490    0.1720   -3.0620 hc        1 MOL     -0.067636
    154 H72         9.3000    1.5670   -2.4750 hc        1 MOL     -0.067636
    155 H73         8.4720    2.7290   -4.4320 hc        1 MOL      0.053924
    156 H74         7.4230    1.3700   -4.8920 hc        1 MOL      0.053924
    157 H75         9.4210    1.5270   -6.3100 hx        1 MOL      0.096439
    158 H76         9.4640   -0.0420   -5.4140 hx        1 MOL      0.096439
    159 H77        10.8420    2.3730   -4.6610 hn        1 MOL      0.279611
    160 H78        11.1650    0.9000   -3.9400 hn        1 MOL      0.279611
    161 H79        11.5350    1.2020   -5.4930 hn        1 MOL      0.279611
    162 N14         4.9320    1.3800    0.3990 n         1 MOL     -0.104986
    163 C49         3.9610    1.9600    1.3370 c3        1 MOL     -0.172590
    164 C50         4.4500    1.8080    2.7910 c         1 MOL      0.461316
    165 O22         4.2360    2.7410    3.5300 o         1 MOL     -0.556814
    166 C51         2.7010    1.2600    1.1370 c3        1 MOL      0.169219
    167 C52         1.9430    1.5440   -0.1950 c3        1 MOL     -0.174572
    168 C53         0.6060    0.7930   -0.4160 c         1 MOL      0.768893
    169 O23        -0.2440    1.3720   -1.0960 o         1 MOL     -0.739924
    170 O24         0.3870   -0.3390   -0.0930 o         1 MOL     -0.739924
    171 H80         4.7700    0.4950   -0.0580 hn        1 MOL      0.181780
    172 H81         3.8120    3.0170    1.1230 h1        1 MOL      0.128772
    173 H82         2.0770    1.5740    1.9720 hc        1 MOL      0.013654
    174 H83         2.9140    0.1920    1.1130 hc        1 MOL      0.013654
    175 H84         2.6550    1.3010   -0.9790 hc        1 MOL      0.010512
    176 H85         1.6920    2.6040   -0.2080 hc        1 MOL      0.010512
    177 N15         5.2330    0.7950    3.1840 n         1 MOL     -0.036577
    178 C54         5.8890    0.7510    4.4780 c3        1 MOL     -0.375607
    179 H86         6.8270    0.2030    4.3910 h1        1 MOL      0.130436
    180 H87         6.0930    1.7660    4.8180 h1        1 MOL      0.130436
    181 H88         5.2420    0.2500    5.1980 h1        1 MOL      0.130436
    182 H89         5.3660    0.0620    2.5050 hn        1 MOL      0.111892
    183 Ca1        -1.7240   -0.8250   -1.3560 Ca        1 MOL      1.758504
    184 O25        -0.0580   -0.5630   -3.5200 oh        1 MOL     -0.796319
    185 H90         0.6050   -0.8970   -4.1270 ho        1 MOL      0.375896
    186 H91        -0.1910    0.3490   -3.7780 ho        1 MOL      0.375896
    187 O26        -1.0820   -3.4430   -1.9360 oh        1 MOL     -0.796319
    188 H92        -0.7180   -3.8850   -2.7010 ho        1 MOL      0.375896
    189 H93        -1.7550   -4.0460   -1.6100 ho        1 MOL      0.375896
@<TRIPOS>BOND
     1    1    2 1   
     2    1    4 1   
     3    1    5 1   
     4    1    6 1   
     5    2    3 2   
     6    2    7 1   
     7    7    8 1   
     8    7   15 1   
     9    8    9 1   
    10    8   11 1   
    11    8   16 1   
    12    9   10 2   
    13    9   19 1   
    14   11   12 1   
    15   11   17 1   
    16   11   18 1   
    17   12   13 1   
    18   12   14 1   
    19   19   20 1   
    20   19   28 1   
    21   20   21 1   
    22   20   23 1   
    23   20   29 1   
    24   21   22 2   
    25   21   41 1   
    26   23   24 1   
    27   23   30 1   
    28   23   31 1   
    29   24   25 1   
    30   24   32 1   
    31   24   33 1   
    32   25   26 1   
    33   25   34 1   
    34   25   35 1   
    35   26   27 1   
    36   26   36 1   
    37   26   37 1   
    38   27   38 1   
    39   27   39 1   
    40   27   40 1   
    41   41   42 1   
    42   41   49 1   
    43   42   43 1   
    44   42   45 1   
    45   42   50 1   
    46   43   44 2   
    47   43   53 1   
    48   45   46 1   
    49   45   51 1   
    50   45   52 1   
    51   46   47 1   
    52   46   48 1   
    53   53   54 1   
    54   53   57 1   
    55   54   55 1   
    56   54   58 1   
    57   54   59 1   
    58   55   56 2   
    59   55   60 1   
    60   60   61 1   
    61   60   68 1   
    62   61   62 1   
    63   61   64 1   
    64   61   69 1   
    65   62   63 2   
    66   62   72 1   
    67   64   65 1   
    68   64   70 1   
    69   64   71 1   
    70   65   66 1   
    71   65   67 1   
    72   72   73 1   
    73   72   76 1   
    74   73   74 1   
    75   73   77 1   
    76   73   78 1   
    77   74   75 2   
    78   74   79 1   
    79   79   80 1   
    80   79   86 1   
    81   80   81 1   
    82   80   83 1   
    83   80   87 1   
    84   81   82 2   
    85   81   93 1   
    86   83   84 1   
    87   83   85 1   
    88   83   88 1   
    89   84   90 1   
    90   84   91 1   
    91   84   92 1   
    92   85   89 1   
    93   93   94 1   
    94   93  101 1   
    95   94   95 1   
    96   94   97 1   
    97   94  102 1   
    98   95   96 2   
    99   95  112 1   
   100   97   98 1   
   101   97   99 1   
   102   97  103 1   
   103   98  100 1   
   104   98  104 1   
   105   98  105 1   
   106   99  106 1   
   107   99  107 1   
   108   99  108 1   
   109  100  109 1   
   110  100  110 1   
   111  100  111 1   
   112  112  113 1   
   113  112  119 1   
   114  113  114 1   
   115  113  116 1   
   116  113  120 1   
   117  114  115 2   
   118  114  126 1   
   119  116  117 1   
   120  116  118 1   
   121  116  121 1   
   122  117  123 1   
   123  117  124 1   
   124  117  125 1   
   125  118  122 1   
   126  126  127 1   
   127  126  133 1   
   128  127  128 1   
   129  127  130 1   
   130  127  134 1   
   131  128  129 2   
   132  128  140 1   
   133  130  131 1   
   134  130  132 1   
   135  130  135 1   
   136  131  137 1   
   137  131  138 1   
   138  131  139 1   
   139  132  136 1   
   140  140  141 1   
   141  140  149 1   
   142  141  142 1   
   143  141  144 1   
   144  141  150 1   
   145  142  143 2   
   146  142  162 1   
   147  144  145 1   
   148  144  151 1   
   149  144  152 1   
   150  145  146 1   
   151  145  153 1   
   152  145  154 1   
   153  146  147 1   
   154  146  155 1   
   155  146  156 1   
   156  147  148 1   
   157  147  157 1   
   158  147  158 1   
   159  148  159 1   
   160  148  160 1   
   161  148  161 1   
   162  162  163 1   
   163  162  171 1   
   164  163  164 1   
   165  163  166 1   
   166  163  172 1   
   167  164  165 2   
   168  164  177 1   
   169  166  167 1   
   170  166  173 1   
   171  166  174 1   
   172  167  168 1   
   173  167  175 1   
   174  167  176 1   
   175  168  169 1   
   176  168  170 1   
   177  177  178 1   
   178  177  182 1   
   179  178  179 1   
   180  178  180 1   
   181  178  181 1   
   182  184  185 1   
   183  184  186 1   
   184  187  188 1   
   185  187  189 1   
@<TRIPOS>SUBSTRUCTURE
     1 MOL         1 TEMP              0 ****  ****    0 ROOT
