@<TRIPOS>MOLECULE
MOL
  175   173     1     0     0
SMALL
resp


@<TRIPOS>ATOM
      1 C1          0.5870    4.1240    5.1670 c3        1 MOL     -0.445183
      2 C2         -0.1220    4.0850    3.7580 c         1 MOL      0.686459
      3 O1          0.5110    4.1130    2.7080 o         1 MOL     -0.553649
      4 H1          1.5280    4.6690    5.0840 hc        1 MOL      0.114534
      5 H2         -0.0610    4.6260    5.8860 hc        1 MOL      0.114534
      6 H3          0.7860    3.1060    5.5030 hc        1 MOL      0.114534
      7 N1         -1.4340    3.9870    3.7370 n         1 MOL     -0.635887
      8 C3         -2.2370    3.5520    2.5870 c3        1 MOL      0.285978
      9 C4         -2.7380    4.6360    1.6460 c         1 MOL      0.558916
     10 O2         -3.5200    5.5220    2.0310 o         1 MOL     -0.589384
     11 C5         -3.4740    2.7230    3.0060 c3        1 MOL     -0.377162
     12 C6         -4.1250    2.1200    1.8130 c         1 MOL      0.684199
     13 O3         -5.3700    1.9550    1.9000 o         1 MOL     -0.660837
     14 O4         -3.4350    1.7730    0.8410 o         1 MOL     -0.660837
     15 H4         -1.8950    4.1530    4.6210 hn        1 MOL      0.315703
     16 H5         -1.6310    2.8710    1.9760 h1        1 MOL      0.049333
     17 H6         -4.1330    3.4410    3.4890 hc        1 MOL      0.074682
     18 H7         -3.1330    1.9160    3.6560 hc        1 MOL      0.074682
     19 N2         -2.2690    4.6140    0.4010 n         1 MOL     -0.526172
     20 C7         -2.6340    5.5740   -0.6460 c3        1 MOL      0.476435
     21 C8         -3.8120    5.1120   -1.5360 c         1 MOL      0.223960
     22 O5         -4.2560    5.8800   -2.4680 o         1 MOL     -0.546058
     23 C9         -1.4580    5.8680   -1.6220 c3        1 MOL     -0.357685
     24 H8         -1.6000    3.9020    0.1320 hn        1 MOL      0.222307
     25 H9         -2.8920    6.5580   -0.2740 h1        1 MOL     -0.006612
     26 H10        -1.0340    4.9150   -1.9400 hc        1 MOL      0.092487
     27 H11        -1.8680    6.3680   -2.4950 hc        1 MOL      0.092487
     28 H12        -0.7680    6.5500   -1.1180 hc        1 MOL      0.092487
     29 N3         -4.2740    3.8350   -1.4840 n         1 MOL     -0.251054
     30 C10        -5.1700    3.2740   -2.5470 c3        1 MOL      0.204189
     31 C11        -6.4570    2.5680   -2.1120 c         1 MOL      0.230986
     32 O6         -7.3040    2.2250   -2.9550 o         1 MOL     -0.529774
     33 C12        -4.3480    2.3030   -3.4550 c3        1 MOL     -0.240382
     34 C13        -3.5850    1.2740   -2.6410 c         1 MOL      0.763116
     35 O7         -4.1390    0.6090   -1.7930 o         1 MOL     -0.755648
     36 O8         -2.3310    1.1760   -2.8090 o         1 MOL     -0.755648
     37 H13        -3.7500    3.1910   -0.9060 hn        1 MOL      0.274680
     38 H14        -5.4740    4.0570   -3.2430 h1        1 MOL      0.071028
     39 H15        -3.6060    2.9660   -3.9000 hc        1 MOL      0.067129
     40 H16        -4.9660    1.8330   -4.2080 hc        1 MOL      0.067129
     41 N4         -6.6000    2.2040   -0.8770 n         1 MOL     -0.063459
     42 C14        -7.7240    1.4790   -0.3210 c3        1 MOL     -0.169518
     43 C15        -7.5910   -0.0080   -0.6710 c         1 MOL      0.353924
     44 O9         -8.6240   -0.7850   -0.6540 o         1 MOL     -0.594606
     45 H17        -5.9510    2.5920   -0.2130 hn        1 MOL      0.123824
     46 H18        -8.6500    1.8950   -0.7100 h1        1 MOL      0.119952
     47 H19        -7.7940    1.6060    0.7610 h1        1 MOL      0.119952
     48 N5         -6.4530   -0.5130   -1.2660 n         1 MOL      0.038760
     49 C16        -6.2420   -1.7910   -1.9290 c3        1 MOL     -0.128572
     50 C17        -6.1560   -2.9800   -0.9250 c         1 MOL      0.437621
     51 O10        -6.1170   -4.0590   -1.4630 o         1 MOL     -0.505401
     52 C18        -5.1620   -1.7900   -2.9690 c3        1 MOL      0.009166
     53 C19        -3.7300   -2.0980   -2.5290 c         1 MOL      0.322716
     54 N6         -2.8150   -2.3850   -3.4340 n         1 MOL     -0.556373
     55 O11        -3.4270   -2.2320   -1.3500 o         1 MOL     -0.174516
     56 H20        -5.6680    0.1140   -1.1990 hn        1 MOL      0.062315
     57 H21        -7.1250   -2.0020   -2.5240 h1        1 MOL      0.110943
     58 H22        -5.1630   -0.9630   -3.6860 hc        1 MOL      0.036484
     59 H23        -5.3640   -2.5850   -3.6880 hc        1 MOL      0.036484
     60 H24        -3.0480   -2.3210   -4.4130 hn        1 MOL      0.312831
     61 H25        -1.8680   -2.4010   -3.0810 hn        1 MOL      0.312831
     62 N7         -6.1810   -2.8740    0.4390 n         1 MOL     -0.181310
     63 C20        -6.2700   -3.9940    1.3680 c3        1 MOL     -0.414566
     64 C21        -4.9310   -4.6670    1.5980 c         1 MOL      0.575606
     65 O12        -4.8650   -5.6520    2.3210 o         1 MOL     -0.592010
     66 H26        -6.2150   -1.9580    0.8630 hn        1 MOL      0.210792
     67 H27        -6.9170   -4.7630    0.9390 h1        1 MOL      0.168591
     68 H28        -6.5890   -3.6140    2.3270 h1        1 MOL      0.168591
     69 N8         -3.8510   -4.1660    1.0080 n         1 MOL     -0.024491
     70 C22        -2.4750   -4.6800    1.2600 c3        1 MOL     -0.417531
     71 C23        -1.4060   -3.6260    1.3430 c         1 MOL      0.710492
     72 O13        -1.4400   -2.6050    0.7010 o         1 MOL     -0.537084
     73 C24        -1.9070   -5.5760    0.0980 c3        1 MOL      0.502220
     74 C25        -2.5000   -7.0180   -0.0380 c3        1 MOL     -0.390537
     75 O14        -2.2160   -5.0450   -1.2250 oh        1 MOL     -0.567947
     76 H29        -3.9520   -3.3250    0.4550 hn        1 MOL     -0.017459
     77 H30        -2.4760   -5.1880    2.2240 h1        1 MOL      0.136394
     78 H31        -0.8200   -5.7060    0.1670 h1        1 MOL     -0.007813
     79 H32        -2.3250   -4.0930   -1.1820 ho        1 MOL      0.259335
     80 H33        -1.8850   -7.7040   -0.6190 hc        1 MOL      0.094865
     81 H34        -2.5540   -7.4670    0.9510 hc        1 MOL      0.094865
     82 H35        -3.4720   -6.8720   -0.5160 hc        1 MOL      0.094865
     83 N9         -0.3620   -3.7330    2.2330 n         1 MOL     -0.628910
     84 C26         0.7780   -2.8070    2.1220 c3        1 MOL      0.027183
     85 C27         1.6520   -3.0980    0.8850 c         1 MOL      0.496170
     86 O15         2.1770   -4.2130    0.6690 o         1 MOL     -0.570623
     87 C28         1.6010   -2.8570    3.4240 c3        1 MOL      0.208543
     88 C29         0.8170   -2.6450    4.8060 c3        1 MOL      0.102771
     89 C30         2.7400   -1.7800    3.3860 c3        1 MOL     -0.442423
     90 C31         1.6520   -2.2800    6.0100 c3        1 MOL     -0.181450
     91 H36        -0.2800   -4.5680    2.7990 hn        1 MOL      0.309256
     92 H37         0.3500   -1.8060    2.0940 h1        1 MOL     -0.016749
     93 H38         2.0720   -3.8330    3.4800 hc        1 MOL     -0.023684
     94 H39         0.3050   -3.5950    4.9690 hc        1 MOL     -0.027774
     95 H40        -0.0220   -1.9680    4.6620 hc        1 MOL     -0.027774
     96 H41         2.2750   -0.8100    3.5150 hc        1 MOL      0.102755
     97 H42         3.4030   -1.8010    4.2550 hc        1 MOL      0.102755
     98 H43         3.3250   -1.9130    2.4810 hc        1 MOL      0.102755
     99 H44         1.8500   -1.2090    6.0430 hc        1 MOL      0.040875
    100 H45         1.1360   -2.5440    6.9310 hc        1 MOL      0.040875
    101 H46         2.6020   -2.8160    6.0690 hc        1 MOL      0.040875
    102 N10         1.9550   -2.0530    0.0840 n         1 MOL     -0.117837
    103 C32         2.7870   -2.0720   -1.1160 c3        1 MOL      0.043373
    104 C33         4.2720   -1.6170   -0.8700 c         1 MOL      0.483178
    105 O16         4.4700   -0.9700    0.1370 o         1 MOL     -0.393590
    106 C34         2.1670   -1.3420   -2.3150 c3        1 MOL     -0.215546
    107 C35         0.7330   -1.8270   -2.5990 c         1 MOL      0.671684
    108 O17        -0.2430   -1.4360   -1.9110 o         1 MOL     -0.679672
    109 O18         0.4540   -2.4590   -3.6630 o         1 MOL     -0.679672
    110 H47         1.4640   -1.1930    0.2440 hn        1 MOL      0.109263
    111 H48         2.8900   -3.1240   -1.3720 h1        1 MOL      0.045067
    112 H49         2.7960   -1.3460   -3.2050 hc        1 MOL      0.055287
    113 H50         2.1240   -0.3250   -1.9020 hc        1 MOL      0.055287
    114 N11         5.3290   -1.8790   -1.6960 n         1 MOL     -0.670703
    115 C36         6.7000   -1.3880   -1.3570 c3        1 MOL      0.471174
    116 C37         6.9470    0.1320   -1.0730 c         1 MOL      0.270557
    117 O19         7.6550    0.4000   -0.1380 o         1 MOL     -0.409959
    118 C38         7.7080   -1.7320   -2.4190 c3        1 MOL     -0.393693
    119 C39         9.1380   -1.4800   -2.0210 ca        1 MOL      0.229363
    120 C40        10.0240   -0.7550   -2.9280 ca        1 MOL     -0.228311
    121 C41         9.6820   -2.0370   -0.8490 ca        1 MOL     -0.228311
    122 C42        11.2900   -0.4430   -2.4820 ca        1 MOL     -0.095246
    123 C43        10.9820   -1.7810   -0.4540 ca        1 MOL     -0.095246
    124 C44        11.7520   -0.8920   -1.2240 ca        1 MOL     -0.112968
    125 H51         5.3100   -2.4120   -2.5500 hn        1 MOL      0.330180
    126 H52         6.8540   -1.9700   -0.4480 h1        1 MOL      0.033170
    127 H53         7.4480   -1.0710   -3.2440 hc        1 MOL      0.095722
    128 H54         7.5140   -2.7580   -2.7280 hc        1 MOL      0.095722
    129 H55         9.5650   -0.2990   -3.7860 ha        1 MOL      0.129583
    130 H56         8.9990   -2.5420   -0.1700 ha        1 MOL      0.129583
    131 H57        11.9410    0.2640   -2.9840 ha        1 MOL      0.111689
    132 H58        11.3500   -2.2830    0.4180 ha        1 MOL      0.111689
    133 H59        12.7440   -0.6550   -0.8830 ha        1 MOL      0.093179
    134 N12         6.3250    1.0560   -1.8640 n         1 MOL     -0.148683
    135 C45         6.2680    2.4810   -1.5320 c3        1 MOL      0.026404
    136 C46         5.6890    2.8660   -0.1660 c         1 MOL      0.325951
    137 O20         6.1600    3.7950    0.4560 o         1 MOL     -0.489925
    138 C47         5.5410    3.2000   -2.7470 c3        1 MOL      0.025872
    139 C48         5.4400    2.1590   -3.8370 c3        1 MOL     -0.064438
    140 C49         5.4780    0.8440   -3.0750 c3        1 MOL     -0.037169
    141 H60         7.2880    2.8460   -1.4100 h1        1 MOL      0.047616
    142 H61         4.5790    3.5530   -2.3770 hc        1 MOL      0.012140
    143 H62         6.1450    4.0510   -3.0730 hc        1 MOL      0.012140
    144 H63         4.4950    2.3190   -4.3640 hc        1 MOL      0.039252
    145 H64         6.2470    2.2790   -4.5660 hc        1 MOL      0.039252
    146 H65         4.4520    0.6520   -2.7850 h1        1 MOL      0.051819
    147 H66         5.8080    0.0790   -3.7690 h1        1 MOL      0.051819
    148 N13         4.7180    2.0220    0.2800 n         1 MOL     -0.054497
    149 C50         4.1100    2.2270    1.5930 c3        1 MOL     -0.229679
    150 C51         4.9800    1.6360    2.7080 c         1 MOL      0.478051
    151 O21         4.9630    2.0870    3.8810 o         1 MOL     -0.563948
    152 C52         2.6660    1.6090    1.5450 c3        1 MOL      0.014470
    153 C53         1.8540    2.3380    0.5120 c3        1 MOL     -0.124226
    154 C54         0.5780    1.6450    0.3340 c         1 MOL      0.658976
    155 O22        -0.3140    2.1760   -0.3460 o         1 MOL     -0.681817
    156 O23         0.3990    0.4780    0.6500 o         1 MOL     -0.681817
    157 H67         4.2810    1.3630   -0.3440 hn        1 MOL      0.255605
    158 H68         3.8750    3.2840    1.7120 h1        1 MOL      0.128185
    159 H69         2.1980    1.6560    2.5280 hc        1 MOL      0.046844
    160 H70         2.7400    0.5420    1.3280 hc        1 MOL      0.046844
    161 H71         2.4430    2.2990   -0.4060 hc        1 MOL      0.036806
    162 H72         1.8050    3.3870    0.8080 hc        1 MOL      0.036806
    163 N14         5.8420    0.6600    2.3280 n         1 MOL      0.017479
    164 C55         6.7440   -0.0210    3.2210 c3        1 MOL     -0.299467
    165 H73         7.6870    0.5210    3.2670 h1        1 MOL      0.098531
    166 H74         6.3040   -0.0660    4.2180 h1        1 MOL      0.098531
    167 H75         6.9230   -1.0320    2.8560 h1        1 MOL      0.098531
    168 H76         5.9140    0.4150    1.3430 hn        1 MOL     -0.031498
    169 Ca1        -1.9360   -0.1460   -0.3070 Ca        1 MOL      1.647206
    170 O24        -1.6020    0.1360    2.5750 oh        1 MOL     -0.616166
    171 H77        -0.9780    0.8310    2.3280 ho        1 MOL      0.328429
    172 H78        -1.7560    0.2800    3.5080 ho        1 MOL      0.328429
    173 O25        -3.9900   -1.1380    1.3430 oh        1 MOL     -0.616166
    174 H79        -3.6290   -1.3620    2.1920 ho        1 MOL      0.328429
    175 H80        -4.6870   -0.5120    1.5370 ho        1 MOL      0.328429
@<TRIPOS>BOND
     1    1    2 1   
     2    1    4 1   
     3    1    5 1   
     4    1    6 1   
     5    2    3 2   
     6    2    7 1   
     7    7    8 1   
     8    7   15 1   
     9    8    9 1   
    10    8   11 1   
    11    8   16 1   
    12    9   10 2   
    13    9   19 1   
    14   11   12 1   
    15   11   17 1   
    16   11   18 1   
    17   12   13 1   
    18   12   14 1   
    19   19   20 1   
    20   19   24 1   
    21   20   21 1   
    22   20   23 1   
    23   20   25 1   
    24   21   22 2   
    25   21   29 1   
    26   23   26 1   
    27   23   27 1   
    28   23   28 1   
    29   29   30 1   
    30   29   37 1   
    31   30   31 1   
    32   30   33 1   
    33   30   38 1   
    34   31   32 2   
    35   31   41 1   
    36   33   34 1   
    37   33   39 1   
    38   33   40 1   
    39   34   35 1   
    40   34   36 1   
    41   41   42 1   
    42   41   45 1   
    43   42   43 1   
    44   42   46 1   
    45   42   47 1   
    46   43   44 2   
    47   43   48 1   
    48   48   49 1   
    49   48   56 1   
    50   49   50 1   
    51   49   52 1   
    52   49   57 1   
    53   50   51 2   
    54   50   62 1   
    55   52   53 1   
    56   52   58 1   
    57   52   59 1   
    58   53   54 1   
    59   53   55 2   
    60   54   60 1   
    61   54   61 1   
    62   62   63 1   
    63   62   66 1   
    64   63   64 1   
    65   63   67 1   
    66   63   68 1   
    67   64   65 2   
    68   64   69 1   
    69   69   70 1   
    70   69   76 1   
    71   70   71 1   
    72   70   73 1   
    73   70   77 1   
    74   71   72 2   
    75   71   83 1   
    76   73   74 1   
    77   73   75 1   
    78   73   78 1   
    79   74   80 1   
    80   74   81 1   
    81   74   82 1   
    82   75   79 1   
    83   83   84 1   
    84   83   91 1   
    85   84   85 1   
    86   84   87 1   
    87   84   92 1   
    88   85   86 2   
    89   85  102 1   
    90   87   88 1   
    91   87   89 1   
    92   87   93 1   
    93   88   90 1   
    94   88   94 1   
    95   88   95 1   
    96   89   96 1   
    97   89   97 1   
    98   89   98 1   
    99   90   99 1   
   100   90  100 1   
   101   90  101 1   
   102  102  103 1   
   103  102  110 1   
   104  103  104 1   
   105  103  106 1   
   106  103  111 1   
   107  104  105 2   
   108  104  114 1   
   109  106  107 1   
   110  106  112 1   
   111  106  113 1   
   112  107  108 1   
   113  107  109 1   
   114  114  115 1   
   115  114  125 1   
   116  115  116 1   
   117  115  118 1   
   118  115  126 1   
   119  116  117 2   
   120  116  134 1   
   121  118  119 1   
   122  118  127 1   
   123  118  128 1   
   124  119  120 ar  
   125  119  121 ar  
   126  120  122 ar  
   127  120  129 1   
   128  121  123 ar  
   129  121  130 1   
   130  122  124 ar  
   131  122  131 1   
   132  123  124 ar  
   133  123  132 1   
   134  124  133 1   
   135  134  135 1   
   136  134  140 1   
   137  135  136 1   
   138  135  138 1   
   139  135  141 1   
   140  136  137 2   
   141  136  148 1   
   142  138  139 1   
   143  138  142 1   
   144  138  143 1   
   145  139  140 1   
   146  139  144 1   
   147  139  145 1   
   148  140  146 1   
   149  140  147 1   
   150  148  149 1   
   151  148  157 1   
   152  149  150 1   
   153  149  152 1   
   154  149  158 1   
   155  150  151 2   
   156  150  163 1   
   157  152  153 1   
   158  152  159 1   
   159  152  160 1   
   160  153  154 1   
   161  153  161 1   
   162  153  162 1   
   163  154  155 1   
   164  154  156 1   
   165  163  164 1   
   166  163  168 1   
   167  164  165 1   
   168  164  166 1   
   169  164  167 1   
   170  170  171 1   
   171  170  172 1   
   172  173  174 1   
   173  173  175 1   
@<TRIPOS>SUBSTRUCTURE
     1 MOL         1 TEMP              0 ****  ****    0 ROOT
