@<TRIPOS>MOLECULE
MOL
  172   171     1     0     0
SMALL
resp


@<TRIPOS>ATOM
      1 C1         -0.5100   -3.3680    5.3390 c3        1 MOL     -0.402370
      2 C2          0.2120   -3.4380    3.9860 c         1 MOL      0.775961
      3 O1         -0.4850   -3.6080    2.9560 o         1 MOL     -0.599957
      4 H1          0.2240   -3.2370    6.1350 hc        1 MOL      0.091255
      5 H2         -1.2000   -2.5250    5.3400 hc        1 MOL      0.091255
      6 H3         -1.0640   -4.2920    5.5030 hc        1 MOL      0.091255
      7 N1          1.5030   -3.2640    3.9960 n         1 MOL     -0.684324
      8 C3          2.2770   -3.2620    2.7320 c3        1 MOL      0.458279
      9 C4          2.4650   -4.6350    2.0040 c         1 MOL      0.426168
     10 O2          2.7200   -5.6390    2.6580 o         1 MOL     -0.568671
     11 C5          3.5920   -2.5580    3.0030 c3        1 MOL     -0.494087
     12 C6          4.4480   -2.3610    1.6900 c         1 MOL      0.778294
     13 O3          3.8380   -1.9340    0.6660 o         1 MOL     -0.641416
     14 O4          5.6380   -2.7490    1.7760 o         1 MOL     -0.641416
     15 H4          1.9460   -2.9060    4.8370 hn        1 MOL      0.341566
     16 H5          1.6860   -2.6180    2.0780 h1        1 MOL     -0.019462
     17 H6          4.1890   -3.1180    3.7200 hc        1 MOL      0.070973
     18 H7          3.1880   -1.5940    3.3380 hc        1 MOL      0.070973
     19 N2          2.3960   -4.5510    0.7030 n         1 MOL     -0.339344
     20 C7          2.7890   -5.6200   -0.2090 c3        1 MOL      0.163435
     21 C8          3.4730   -5.1280   -1.5200 c         1 MOL      0.568004
     22 O5          3.3620   -5.7780   -2.5360 o         1 MOL     -0.559321
     23 C9          1.5960   -6.4950   -0.5730 c3        1 MOL     -0.217699
     24 H8          2.1080   -3.6390    0.3770 hn        1 MOL      0.325764
     25 H9          3.4150   -6.3580    0.2930 h1        1 MOL      0.040925
     26 H10         1.9140   -7.4040   -1.0850 hc        1 MOL      0.052345
     27 H11         1.1480   -6.8340    0.3650 hc        1 MOL      0.052345
     28 H12         0.7860   -5.9680   -1.0790 hc        1 MOL      0.052345
     29 N3          4.2150   -4.0310   -1.4740 n         1 MOL     -0.510734
     30 C10         4.9820   -3.4650   -2.5970 c3        1 MOL      0.157763
     31 C11         6.2290   -2.6180   -2.1940 c         1 MOL      0.334591
     32 O6          7.0630   -2.2650   -3.0130 o         1 MOL     -0.572701
     33 C12         4.0850   -2.5680   -3.5040 c3        1 MOL     -0.156829
     34 C13         3.3930   -1.4680   -2.6060 c         1 MOL      0.650639
     35 O7          2.1390   -1.5990   -2.3960 o         1 MOL     -0.676148
     36 O8          3.9570   -0.5490   -1.9890 o         1 MOL     -0.676148
     37 H13         4.2040   -3.5240   -0.6080 hn        1 MOL      0.185842
     38 H14         5.3370   -4.3030   -3.2100 h1        1 MOL      0.062517
     39 H15         3.3680   -3.2340   -3.9920 hc        1 MOL      0.053301
     40 H16         4.6360   -2.0980   -4.3090 hc        1 MOL      0.053301
     41 N4          6.2990   -2.1090   -0.9860 n         1 MOL     -0.027510
     42 C14         7.4920   -1.3430   -0.5000 c3        1 MOL     -0.361748
     43 C15         7.4380    0.1940   -0.8110 c         1 MOL      0.623973
     44 O9          8.3250    0.9300   -0.4700 o         1 MOL     -0.622848
     45 H17         5.5340   -2.3110   -0.3600 hn        1 MOL      0.098496
     46 H18         8.3590   -1.7790   -1.0110 h1        1 MOL      0.145877
     47 H19         7.6070   -1.4480    0.5810 h1        1 MOL      0.145877
     48 N5          6.3410    0.6680   -1.4340 n         1 MOL     -0.301973
     49 C16         6.2460    2.0220   -1.9620 c3        1 MOL     -0.081083
     50 C17         6.2170    3.1870   -0.9160 c         1 MOL      0.509213
     51 O10         6.1240    4.3670   -1.2740 o         1 MOL     -0.549849
     52 C18         5.0130    2.1460   -2.9310 c3        1 MOL     -0.089435
     53 C19         3.5770    2.3320   -2.4720 c         1 MOL      0.475158
     54 N6          2.5680    2.2930   -3.3250 n         1 MOL     -0.626843
     55 O11         3.3470    2.3390   -1.2780 o         1 MOL     -0.505067
     56 H20         5.5840    0.0230   -1.6000 hn        1 MOL      0.267954
     57 H21         7.0950    2.3000   -2.5880 h1        1 MOL      0.109913
     58 H22         5.0640    1.2380   -3.5360 hc        1 MOL      0.044149
     59 H23         5.2190    2.9110   -3.6710 hc        1 MOL      0.044149
     60 H24         2.6980    2.1340   -4.3150 hn        1 MOL      0.344841
     61 H25         1.6570    2.4630   -2.9350 hn        1 MOL      0.344841
     62 N7          6.3050    2.8610    0.3610 n         1 MOL     -0.357549
     63 C20         6.2350    3.8170    1.4450 c3        1 MOL      0.013074
     64 C21         4.8570    4.4300    1.5950 c         1 MOL      0.415712
     65 O12         4.9500    5.5610    2.1060 o         1 MOL     -0.563307
     66 H26         6.4550    1.8950    0.6180 hn        1 MOL      0.296807
     67 H27         6.9840    4.5990    1.3630 h1        1 MOL      0.072608
     68 H28         6.5870    3.4170    2.3960 h1        1 MOL      0.072608
     69 N8          3.7240    3.8850    1.0890 n         1 MOL     -0.234738
     70 C22         2.4140    4.5630    1.0990 c3        1 MOL     -0.092824
     71 C23         1.2680    3.5300    1.0790 c         1 MOL      0.431913
     72 O13         1.4060    2.3660    0.6750 o         1 MOL     -0.511335
     73 C24         2.1550    5.6210   -0.0100 c3        1 MOL      0.631777
     74 C25         2.9580    6.9240    0.2090 c3        1 MOL     -0.534977
     75 O14         2.3910    5.0800   -1.2750 oh        1 MOL     -0.724974
     76 H29         3.7680    2.9330    0.7360 hn        1 MOL      0.171984
     77 H30         2.3080    5.0790    2.0540 h1        1 MOL      0.052702
     78 H31         1.0980    5.8700    0.1410 h1        1 MOL     -0.061843
     79 H32         2.9560    4.3030   -1.2530 ho        1 MOL      0.452132
     80 H33         2.7150    7.6960   -0.5120 hc        1 MOL      0.128604
     81 H34         2.5470    7.2510    1.1690 hc        1 MOL      0.128604
     82 H35         4.0020    6.6660    0.0110 hc        1 MOL      0.128604
     83 N9          0.1360    3.9970    1.6170 n         1 MOL     -0.398281
     84 C26        -1.0420    3.1820    1.6590 c3        1 MOL     -0.036504
     85 C27        -1.8910    3.2830    0.3640 c         1 MOL      0.454904
     86 O15        -2.4300    4.3370   -0.0270 o         1 MOL     -0.585654
     87 C28        -1.8340    3.3570    2.8860 c3        1 MOL      0.351119
     88 C29        -0.9850    3.4110    4.1080 c3        1 MOL     -0.112396
     89 C30        -3.0130    2.3990    2.9950 c3        1 MOL      0.009682
     90 C31        -1.7020    3.9280    5.4420 c3        1 MOL     -0.081301
     91 H36         0.0180    4.9860    1.7490 hn        1 MOL      0.279561
     92 H37        -0.6800    2.1510    1.7120 h1        1 MOL      0.052941
     93 H38        -2.3660    4.3060    2.7480 hc        1 MOL     -0.106181
     94 H39        -0.1620    4.1120    4.0110 hc        1 MOL      0.015644
     95 H40        -0.6440    2.4060    4.3500 hc        1 MOL      0.015644
     96 H41        -2.5620    1.4170    3.1250 hc        1 MOL     -0.025325
     97 H42        -3.6880    2.7060    3.7950 hc        1 MOL     -0.025325
     98 H43        -3.6930    2.4190    2.1360 hc        1 MOL     -0.025325
     99 H44        -1.1340    3.8930    6.3780 hc        1 MOL      0.013279
    100 H45        -1.9950    4.9710    5.3570 hc        1 MOL      0.013279
    101 H46        -2.5250    3.2160    5.4810 hc        1 MOL      0.013279
    102 N10        -1.9510    2.1890   -0.3530 n         1 MOL     -0.111664
    103 C32        -2.8590    1.9260   -1.4960 c3        1 MOL      0.045889
    104 C33        -4.2610    1.5120   -1.0420 c         1 MOL      0.405248
    105 O16        -4.4430    1.1990    0.1370 o         1 MOL     -0.374857
    106 C34        -2.1780    0.8890   -2.4230 c3        1 MOL     -0.207956
    107 C35        -0.6340    1.0040   -2.6180 c         1 MOL      0.646734
    108 O17         0.1450    0.6110   -1.7170 o         1 MOL     -0.667594
    109 O18        -0.1660    1.5880   -3.6280 o         1 MOL     -0.667594
    110 H47        -1.3490    1.4510   -0.0340 hn        1 MOL      0.138791
    111 H48        -3.0230    2.8610   -2.0260 h1        1 MOL      0.062289
    112 H49        -2.5640    0.8470   -3.4380 hc        1 MOL      0.058093
    113 H50        -2.2570   -0.0860   -1.9310 hc        1 MOL      0.058093
    114 N11        -5.2760    1.4770   -1.9020 n         1 MOL     -0.475711
    115 C36        -6.6150    1.0770   -1.5960 c3        1 MOL      0.294635
    116 C37        -6.6230   -0.4150   -1.0420 c         1 MOL      0.196765
    117 O19        -7.2710   -0.6260   -0.0270 o         1 MOL     -0.487424
    118 C38        -7.4860    1.2970   -2.7770 c3        1 MOL     -0.195387
    119 C39        -8.9410    1.2690   -2.2990 ca        1 MOL     -0.007520
    120 C40        -9.4420    2.4180   -1.6430 ca        1 MOL     -0.061340
    121 C41        -9.7910    0.1920   -2.5220 ca        1 MOL     -0.061340
    122 C42       -10.7690    2.5910   -1.2860 ca        1 MOL     -0.186720
    123 C43       -11.1540    0.3400   -2.1230 ca        1 MOL     -0.186720
    124 C44       -11.6290    1.4860   -1.5140 ca        1 MOL     -0.031136
    125 H51        -5.0550    1.6060   -2.8770 hn        1 MOL      0.262314
    126 H52        -6.9490    1.8490   -0.8960 h1        1 MOL      0.058016
    127 H53        -7.3670    0.5110   -3.5360 hc        1 MOL      0.072504
    128 H54        -7.1590    2.2020   -3.2880 hc        1 MOL      0.072504
    129 H55        -8.7600    3.2570   -1.6610 ha        1 MOL      0.094863
    130 H56        -9.3160   -0.6870   -2.9370 ha        1 MOL      0.094863
    131 H57       -11.0840    3.4730   -0.7490 ha        1 MOL      0.123306
    132 H58       -11.8700   -0.4420   -2.3460 ha        1 MOL      0.123306
    133 H59       -12.6750    1.5740   -1.2750 ha        1 MOL      0.083190
    134 N12        -6.0110   -1.4940   -1.6020 n         1 MOL      0.131392
    135 C45        -6.1590   -2.8630   -1.0720 c3        1 MOL     -0.039237
    136 C46        -5.4460   -3.0490    0.2580 c         1 MOL      0.340794
    137 O20        -5.4950   -4.1610    0.8350 o         1 MOL     -0.517759
    138 C47        -5.6740   -3.7990   -2.1920 c3        1 MOL     -0.150317
    139 C48        -4.7520   -2.8670   -3.0290 c3        1 MOL      0.001698
    140 C49        -5.2460   -1.4670   -2.8060 c3        1 MOL     -0.136857
    141 H60        -7.2280   -3.0390   -1.0090 h1        1 MOL      0.075349
    142 H61        -5.1470   -4.6540   -1.7900 hc        1 MOL      0.072239
    143 H62        -6.5460   -4.0710   -2.7770 hc        1 MOL      0.072239
    144 H63        -3.7870   -2.9940   -2.5430 hc        1 MOL      0.029397
    145 H64        -4.8840   -3.1210   -4.0820 hc        1 MOL      0.029397
    146 H65        -4.3380   -0.8680   -2.7620 h1        1 MOL      0.040634
    147 H66        -5.9290   -1.2770   -3.6350 h1        1 MOL      0.040634
    148 N13        -4.7040   -2.0100    0.6770 n         1 MOL     -0.076893
    149 C50        -3.9710   -2.0480    1.9290 c3        1 MOL     -0.053720
    150 C51        -4.7440   -1.3300    3.0670 c         1 MOL      0.413850
    151 O21        -4.7250   -1.7390    4.2230 o         1 MOL     -0.556085
    152 C52        -2.6480   -1.4260    1.6860 c3        1 MOL      0.079873
    153 C53        -1.8910   -2.0210    0.5130 c3        1 MOL     -0.134729
    154 C54        -0.4280   -1.6550    0.7650 c         1 MOL      0.537376
    155 O22         0.4640   -2.2120    0.0970 o         1 MOL     -0.733680
    156 O23        -0.0560   -0.6060    1.3740 o         1 MOL     -0.733680
    157 H67        -4.7400   -1.1320    0.1860 hn        1 MOL      0.088104
    158 H68        -3.8220   -3.0790    2.2490 h1        1 MOL      0.098031
    159 H69        -2.0280   -1.6510    2.5450 hc        1 MOL      0.035013
    160 H70        -2.7400   -0.3570    1.5160 hc        1 MOL      0.035013
    161 H71        -2.2110   -1.6410   -0.4580 hc        1 MOL      0.094067
    162 H72        -1.9390   -3.1120    0.5100 hc        1 MOL      0.094067
    163 N14        -5.4640   -0.2750    2.7450 n         1 MOL     -0.096812
    164 C55        -6.5030    0.4000    3.5540 c3        1 MOL     -0.204786
    165 H73        -7.4240    0.4720    2.9740 h1        1 MOL      0.083312
    166 H74        -6.6890   -0.1750    4.4610 h1        1 MOL      0.083312
    167 H75        -6.1640    1.4010    3.8200 h1        1 MOL      0.083312
    168 H76        -5.4780    0.0510    1.7870 hn        1 MOL      0.124072
    169 Ca1         2.0760   -0.1020   -0.2010 Ca        1 MOL      1.745373
    170 O24         3.9640    0.7280    1.6530 oh        1 MOL     -0.952567
    171 H77         4.7040    0.2760    2.0730 ho        1 MOL      0.437476
    172 H78         3.4250    1.0370    2.3930 ho        1 MOL      0.437476
@<TRIPOS>BOND
     1    1    2 1   
     2    1    4 1   
     3    1    5 1   
     4    1    6 1   
     5    2    3 2   
     6    2    7 1   
     7    7    8 1   
     8    7   15 1   
     9    8    9 1   
    10    8   11 1   
    11    8   16 1   
    12    9   10 2   
    13    9   19 1   
    14   11   12 1   
    15   11   17 1   
    16   11   18 1   
    17   12   13 1   
    18   12   14 1   
    19   19   20 1   
    20   19   24 1   
    21   20   21 1   
    22   20   23 1   
    23   20   25 1   
    24   21   22 2   
    25   21   29 1   
    26   23   26 1   
    27   23   27 1   
    28   23   28 1   
    29   29   30 1   
    30   29   37 1   
    31   30   31 1   
    32   30   33 1   
    33   30   38 1   
    34   31   32 2   
    35   31   41 1   
    36   33   34 1   
    37   33   39 1   
    38   33   40 1   
    39   34   35 1   
    40   34   36 1   
    41   41   42 1   
    42   41   45 1   
    43   42   43 1   
    44   42   46 1   
    45   42   47 1   
    46   43   44 2   
    47   43   48 1   
    48   48   49 1   
    49   48   56 1   
    50   49   50 1   
    51   49   52 1   
    52   49   57 1   
    53   50   51 2   
    54   50   62 1   
    55   52   53 1   
    56   52   58 1   
    57   52   59 1   
    58   53   54 1   
    59   53   55 2   
    60   54   60 1   
    61   54   61 1   
    62   62   63 1   
    63   62   66 1   
    64   63   64 1   
    65   63   67 1   
    66   63   68 1   
    67   64   65 2   
    68   64   69 1   
    69   69   70 1   
    70   69   76 1   
    71   70   71 1   
    72   70   73 1   
    73   70   77 1   
    74   71   72 2   
    75   71   83 1   
    76   73   74 1   
    77   73   75 1   
    78   73   78 1   
    79   74   80 1   
    80   74   81 1   
    81   74   82 1   
    82   75   79 1   
    83   83   84 1   
    84   83   91 1   
    85   84   85 1   
    86   84   87 1   
    87   84   92 1   
    88   85   86 2   
    89   85  102 1   
    90   87   88 1   
    91   87   89 1   
    92   87   93 1   
    93   88   90 1   
    94   88   94 1   
    95   88   95 1   
    96   89   96 1   
    97   89   97 1   
    98   89   98 1   
    99   90   99 1   
   100   90  100 1   
   101   90  101 1   
   102  102  103 1   
   103  102  110 1   
   104  103  104 1   
   105  103  106 1   
   106  103  111 1   
   107  104  105 2   
   108  104  114 1   
   109  106  107 1   
   110  106  112 1   
   111  106  113 1   
   112  107  108 1   
   113  107  109 1   
   114  114  115 1   
   115  114  125 1   
   116  115  116 1   
   117  115  118 1   
   118  115  126 1   
   119  116  117 2   
   120  116  134 1   
   121  118  119 1   
   122  118  127 1   
   123  118  128 1   
   124  119  120 ar  
   125  119  121 ar  
   126  120  122 ar  
   127  120  129 1   
   128  121  123 ar  
   129  121  130 1   
   130  122  124 ar  
   131  122  131 1   
   132  123  124 ar  
   133  123  132 1   
   134  124  133 1   
   135  134  135 1   
   136  134  140 1   
   137  135  136 1   
   138  135  138 1   
   139  135  141 1   
   140  136  137 2   
   141  136  148 1   
   142  138  139 1   
   143  138  142 1   
   144  138  143 1   
   145  139  140 1   
   146  139  144 1   
   147  139  145 1   
   148  140  146 1   
   149  140  147 1   
   150  148  149 1   
   151  148  157 1   
   152  149  150 1   
   153  149  152 1   
   154  149  158 1   
   155  150  151 2   
   156  150  163 1   
   157  152  153 1   
   158  152  159 1   
   159  152  160 1   
   160  153  154 1   
   161  153  161 1   
   162  153  162 1   
   163  154  155 1   
   164  154  156 1   
   165  163  164 1   
   166  163  168 1   
   167  164  165 1   
   168  164  166 1   
   169  164  167 1   
   170  170  171 1   
   171  170  172 1   
@<TRIPOS>SUBSTRUCTURE
     1 MOL         1 TEMP              0 ****  ****    0 ROOT
