@<TRIPOS>MOLECULE
MOL
  175   173     1     0     0
SMALL
resp


@<TRIPOS>ATOM
      1 C1          0.5580    3.0280    5.8460 c3        1 MOL     -0.401244
      2 C2         -0.0880    2.9890    4.4510 c         1 MOL      0.764617
      3 O1          0.5670    3.1170    3.4640 o         1 MOL     -0.520997
      4 H1          1.6130    3.2850    5.7500 hc        1 MOL      0.095975
      5 H2          0.0560    3.7760    6.4590 hc        1 MOL      0.095975
      6 H3          0.4640    2.0490    6.3170 hc        1 MOL      0.095975
      7 N1         -1.4440    2.9280    4.3560 n         1 MOL     -0.709970
      8 C3         -2.2220    2.8440    3.0810 c3        1 MOL      0.399170
      9 C4         -2.2630    4.2230    2.3570 c         1 MOL      0.395406
     10 O2         -2.5500    5.2900    2.9520 o         1 MOL     -0.584202
     11 C5         -3.6070    2.2600    3.1200 c3        1 MOL     -0.329437
     12 C6         -4.3090    2.1640    1.7900 c         1 MOL      0.673078
     13 O3         -3.6670    1.8570    0.7270 o         1 MOL     -0.637488
     14 O4         -5.5680    2.2130    1.8190 o         1 MOL     -0.637488
     15 H4         -1.9320    2.8150    5.2340 hn        1 MOL      0.304441
     16 H5         -1.5700    2.2070    2.4880 h1        1 MOL     -0.070392
     17 H6         -4.3470    2.6880    3.7920 hc        1 MOL      0.066487
     18 H7         -3.5520    1.2380    3.5060 hc        1 MOL      0.066487
     19 N2         -1.9980    4.2110    1.0580 n         1 MOL     -0.090997
     20 C7         -1.9020    5.4400    0.2340 c3        1 MOL      0.006160
     21 C8         -2.6720    5.2990   -1.1310 c         1 MOL      0.528187
     22 O5         -2.6570    6.2610   -1.9050 o         1 MOL     -0.574531
     23 C9         -0.4020    5.6800   -0.0010 c3        1 MOL     -0.093751
     24 H8         -1.6870    3.3580    0.6210 hn        1 MOL      0.177065
     25 H9         -2.3710    6.2640    0.7800 h1        1 MOL      0.057808
     26 H10         0.0050    5.8230    1.0030 hc        1 MOL      0.023977
     27 H11         0.0360    4.7360   -0.3170 hc        1 MOL      0.023977
     28 H12        -0.0810    6.5630   -0.5370 hc        1 MOL      0.023977
     29 N3         -3.4100    4.1950   -1.2940 n         1 MOL     -0.380509
     30 C10        -4.1570    3.8270   -2.5170 c3        1 MOL      0.217323
     31 C11        -5.6140    3.2230   -2.3540 c         1 MOL      0.259992
     32 O6         -6.3910    3.3890   -3.2320 o         1 MOL     -0.532189
     33 C12        -3.4310    2.8290   -3.4630 c3        1 MOL     -0.142019
     34 C13        -2.9200    1.5360   -2.8520 c         1 MOL      0.676737
     35 O7         -1.7110    1.2210   -2.9260 o         1 MOL     -0.697801
     36 O8         -3.6710    0.8400   -2.1170 o         1 MOL     -0.697801
     37 H13        -3.5790    3.6080   -0.4940 hn        1 MOL      0.132732
     38 H14        -4.2600    4.7170   -3.1390 h1        1 MOL      0.034616
     39 H15        -2.6350    3.4270   -3.8920 hc        1 MOL      0.037175
     40 H16        -4.0520    2.6080   -4.3340 hc        1 MOL      0.037175
     41 N4         -5.9430    2.4260   -1.3270 n         1 MOL      0.053642
     42 C14        -7.1940    1.7340   -1.0810 c3        1 MOL     -0.263487
     43 C15        -7.3010    0.2510   -1.5030 c         1 MOL      0.579486
     44 O9         -8.4210   -0.2550   -1.6460 o         1 MOL     -0.630789
     45 H17        -5.1970    2.3170   -0.6660 hn        1 MOL      0.033366
     46 H18        -7.9710    2.2820   -1.6300 h1        1 MOL      0.105158
     47 H19        -7.4200    1.8710   -0.0240 h1        1 MOL      0.105158
     48 N5         -6.2020   -0.3740   -1.8380 n         1 MOL     -0.197212
     49 C16        -6.2180   -1.7070   -2.3790 c3        1 MOL     -0.029093
     50 C17        -6.2720   -2.8900   -1.4110 c         1 MOL      0.348295
     51 O10        -6.3210   -4.0600   -1.8080 o         1 MOL     -0.524461
     52 C18        -5.0280   -1.8190   -3.2910 c3        1 MOL     -0.029868
     53 C19        -3.6300   -1.9440   -2.6010 c         1 MOL      0.668250
     54 N6         -2.6380   -2.1720   -3.4390 n         1 MOL     -0.743977
     55 O11        -3.4210   -1.8910   -1.4130 o         1 MOL     -0.723480
     56 H20        -5.3690    0.1820   -1.9330 hn        1 MOL      0.156090
     57 H21        -7.0540   -1.8090   -3.0600 h1        1 MOL      0.093935
     58 H22        -5.0290   -1.0730   -4.0950 hc        1 MOL      0.024255
     59 H23        -5.2350   -2.6970   -3.9040 hc        1 MOL      0.024255
     60 H24        -2.7960   -1.9940   -4.4280 hn        1 MOL      0.344431
     61 H25        -1.7140   -2.0020   -3.0810 hn        1 MOL      0.344431
     62 N7         -6.2100   -2.5820   -0.1200 n         1 MOL     -0.152371
     63 C20        -6.3430   -3.5550    0.9830 c3        1 MOL     -0.219112
     64 C21        -5.0480   -4.1590    1.5410 c         1 MOL      0.495978
     65 O12        -5.0460   -4.7690    2.6060 o         1 MOL     -0.582680
     66 H26        -6.3070   -1.5940    0.0560 hn        1 MOL      0.211310
     67 H27        -7.0420   -4.3580    0.7320 h1        1 MOL      0.112427
     68 H28        -6.9010   -2.9620    1.7050 h1        1 MOL      0.112427
     69 N8         -3.9070   -4.0290    0.8230 n         1 MOL     -0.250039
     70 C22        -2.5550   -4.6550    1.0270 c3        1 MOL     -0.046841
     71 C23        -1.5280   -3.4960    1.4110 c         1 MOL      0.357812
     72 O13        -1.6540   -2.3730    0.8910 o         1 MOL     -0.303293
     73 C24        -2.0710   -5.2120   -0.3370 c3        1 MOL      0.390701
     74 C25        -2.6110   -6.5800   -0.5120 c3        1 MOL     -0.396690
     75 O14        -2.4000   -4.4350   -1.4750 oh        1 MOL     -0.522789
     76 H29        -4.0140   -3.4350    0.0220 hn        1 MOL      0.321653
     77 H30        -2.4240   -5.4320    1.7760 h1        1 MOL      0.074919
     78 H31        -0.9740   -5.1950   -0.3690 h1        1 MOL     -0.005146
     79 H32        -1.8340   -3.6700   -1.3670 ho        1 MOL      0.325550
     80 H33        -2.0940   -7.2850    0.1270 hc        1 MOL      0.096055
     81 H34        -3.6830   -6.5150   -0.3160 hc        1 MOL      0.096055
     82 H35        -2.5520   -6.8670   -1.5600 hc        1 MOL      0.096055
     83 N9         -0.3810   -3.9340    2.0090 n         1 MOL     -0.526611
     84 C26         0.8500   -3.1490    2.0720 c3        1 MOL     -0.010835
     85 C27         1.5240   -3.1980    0.6950 c         1 MOL      0.564082
     86 O15         1.7340   -4.2400    0.1600 o         1 MOL     -0.573469
     87 C28         1.7790   -3.4610    3.2580 c3        1 MOL      0.171713
     88 C29         1.0870   -3.1000    4.5880 c3        1 MOL      0.058511
     89 C30         3.1060   -2.6600    3.1140 c3        1 MOL     -0.033951
     90 C31         1.9310   -3.6600    5.7750 c3        1 MOL     -0.180208
     91 H36        -0.4060   -4.9240    2.2160 hn        1 MOL      0.314632
     92 H37         0.6940   -2.0890    2.2680 h1        1 MOL      0.089312
     93 H38         2.0480   -4.5110    3.1730 hc        1 MOL     -0.027438
     94 H39         0.1170   -3.5860    4.5550 hc        1 MOL     -0.007045
     95 H40         0.9490   -2.0190    4.5730 hc        1 MOL     -0.007045
     96 H41         3.5540   -2.9560    2.1730 hc        1 MOL      0.004346
     97 H42         3.0530   -1.5780    3.0910 hc        1 MOL      0.004346
     98 H43         3.7640   -3.1220    3.8550 hc        1 MOL      0.004346
     99 H44         2.1410   -4.7290    5.7690 hc        1 MOL      0.033534
    100 H45         2.8570   -3.1230    6.0040 hc        1 MOL      0.033534
    101 H46         1.2160   -3.4730    6.5840 hc        1 MOL      0.033534
    102 N10         1.8800   -2.0300    0.0520 n         1 MOL     -0.111218
    103 C32         2.5500   -1.9100   -1.2930 c3        1 MOL      0.030032
    104 C33         3.9810   -1.4100   -0.9850 c         1 MOL      0.446198
    105 O16         4.3450   -1.0420    0.1150 o         1 MOL     -0.380845
    106 C34         1.8310   -0.8790   -2.2240 c3        1 MOL     -0.324041
    107 C35         0.4150   -1.2910   -2.6810 c         1 MOL      0.822647
    108 O17        -0.5080   -1.2460   -1.8500 o         1 MOL     -0.676259
    109 O18         0.2360   -1.6280   -3.8540 o         1 MOL     -0.676259
    110 H47         1.6090   -1.1430    0.4660 hn        1 MOL     -0.252434
    111 H48         2.6190   -2.8710   -1.8030 h1        1 MOL      0.079984
    112 H49         2.4710   -0.7280   -3.0960 hc        1 MOL      0.106861
    113 H50         1.8470    0.0620   -1.6870 hc        1 MOL      0.106861
    114 N11         4.7780   -1.3140   -2.0470 n         1 MOL     -0.626068
    115 C36         6.2280   -0.9870   -1.8000 c3        1 MOL      0.358485
    116 C37         6.5510    0.4080   -1.3140 c         1 MOL      0.312899
    117 O19         7.3630    0.5250   -0.3580 o         1 MOL     -0.447708
    118 C38         7.0610   -1.5690   -2.9460 c3        1 MOL     -0.275636
    119 C39         8.5250   -1.4610   -2.7010 ca        1 MOL      0.106850
    120 C40         9.1210   -2.2900   -1.7020 ca        1 MOL     -0.166101
    121 C41         9.3440   -0.4730   -3.3330 ca        1 MOL     -0.166101
    122 C42        10.4650   -2.1370   -1.3530 ca        1 MOL     -0.142234
    123 C43        10.7320   -0.3680   -3.0130 ca        1 MOL     -0.142234
    124 C44        11.2150   -1.1600   -1.9890 ca        1 MOL     -0.056784
    125 H51         4.4530   -1.5350   -2.9720 hn        1 MOL      0.331183
    126 H52         6.4120   -1.6220   -0.9410 h1        1 MOL      0.065690
    127 H53         6.7860   -1.0690   -3.8650 hc        1 MOL      0.078008
    128 H54         6.8940   -2.6490   -2.8830 hc        1 MOL      0.078008
    129 H55         8.5420   -3.0170   -1.1380 ha        1 MOL      0.123285
    130 H56         8.8920    0.1710   -4.0820 ha        1 MOL      0.123285
    131 H57        10.8970   -2.8080   -0.6380 ha        1 MOL      0.120504
    132 H58        11.3870    0.3600   -3.4670 ha        1 MOL      0.120504
    133 H59        12.2460   -1.0370   -1.6900 ha        1 MOL      0.077872
    134 N12         5.8380    1.4450   -1.8410 n         1 MOL     -0.072119
    135 C45         5.8420    2.7910   -1.2750 c3        1 MOL     -0.174769
    136 C46         5.5740    2.7990    0.2340 c         1 MOL      0.359143
    137 O20         6.2560    3.4130    0.9800 o         1 MOL     -0.479113
    138 C47         4.7730    3.5450   -2.0710 c3        1 MOL      0.178469
    139 C48         4.7420    2.9000   -3.5290 c3        1 MOL     -0.145394
    140 C49         5.0120    1.4120   -3.0790 c3        1 MOL      0.061246
    141 H60         6.8520    3.1330   -1.5170 h1        1 MOL      0.089105
    142 H61         3.8300    3.2770   -1.5780 hc        1 MOL     -0.011948
    143 H62         4.8590    4.6280   -2.1750 hc        1 MOL     -0.011948
    144 H63         3.7930    2.9240   -4.0600 hc        1 MOL      0.052651
    145 H64         5.6230    3.3130   -4.0170 hc        1 MOL      0.052651
    146 H65         4.0580    0.8940   -3.0260 h1        1 MOL      0.010962
    147 H66         5.4810    0.9060   -3.9270 h1        1 MOL      0.010962
    148 N13         4.6650    1.8730    0.6310 n         1 MOL     -0.042677
    149 C50         4.0610    1.8650    1.9500 c3        1 MOL     -0.323614
    150 C51         4.9270    1.1010    2.9600 c         1 MOL      0.509240
    151 O21         4.9400    1.4400    4.1010 o         1 MOL     -0.567148
    152 C52         2.6900    1.2850    1.8220 c3        1 MOL     -0.010525
    153 C53         1.7860    2.0040    0.8050 c3        1 MOL      0.006941
    154 C54         0.3520    1.3890    0.8000 c         1 MOL      0.481048
    155 O22        -0.5580    1.9760    0.1300 o         1 MOL     -0.622750
    156 O23         0.0940    0.3740    1.4350 o         1 MOL     -0.622750
    157 H67         4.2370    1.3840   -0.1420 hn        1 MOL      0.166710
    158 H68         3.9810    2.8900    2.3110 h1        1 MOL      0.153646
    159 H69         2.1630    1.2560    2.7720 hc        1 MOL      0.097148
    160 H70         2.8450    0.2680    1.4940 hc        1 MOL      0.097148
    161 H71         2.1450    1.8780   -0.2180 hc        1 MOL      0.026750
    162 H72         1.6700    3.0410    1.1300 hc        1 MOL      0.026750
    163 N14         5.6330    0.0770    2.5570 n         1 MOL     -0.008486
    164 C55         6.4460   -0.8090    3.3600 c3        1 MOL     -0.160507
    165 H73         7.1580   -0.2210    3.9410 h1        1 MOL      0.061750
    166 H74         5.8070   -1.3770    4.0370 h1        1 MOL      0.061750
    167 H75         6.9870   -1.4950    2.7090 h1        1 MOL      0.061750
    168 H76         5.6240   -0.1450    1.5650 hn        1 MOL      0.016257
    169 Ca1        -2.2040   -0.0130   -0.1210 Ca        1 MOL      1.708354
    170 O24        -4.1450   -1.0100    1.4330 oh        1 MOL     -0.851930
    171 H77        -3.5160   -1.2570    2.1220 ho        1 MOL      0.408148
    172 H78        -4.7320   -0.3840    1.8670 ho        1 MOL      0.408148
    173 O25        -2.0570   -0.5740    3.0470 oh        1 MOL     -0.851930
    174 H79        -1.1300   -0.4580    2.8700 ho        1 MOL      0.408148
    175 H80        -2.1630   -0.3160    3.9650 ho        1 MOL      0.408148
@<TRIPOS>BOND
     1    1    2 1   
     2    1    4 1   
     3    1    5 1   
     4    1    6 1   
     5    2    3 2   
     6    2    7 1   
     7    7    8 1   
     8    7   15 1   
     9    8    9 1   
    10    8   11 1   
    11    8   16 1   
    12    9   10 2   
    13    9   19 1   
    14   11   12 1   
    15   11   17 1   
    16   11   18 1   
    17   12   13 1   
    18   12   14 1   
    19   19   20 1   
    20   19   24 1   
    21   20   21 1   
    22   20   23 1   
    23   20   25 1   
    24   21   22 2   
    25   21   29 1   
    26   23   26 1   
    27   23   27 1   
    28   23   28 1   
    29   29   30 1   
    30   29   37 1   
    31   30   31 1   
    32   30   33 1   
    33   30   38 1   
    34   31   32 2   
    35   31   41 1   
    36   33   34 1   
    37   33   39 1   
    38   33   40 1   
    39   34   35 1   
    40   34   36 1   
    41   41   42 1   
    42   41   45 1   
    43   42   43 1   
    44   42   46 1   
    45   42   47 1   
    46   43   44 2   
    47   43   48 1   
    48   48   49 1   
    49   48   56 1   
    50   49   50 1   
    51   49   52 1   
    52   49   57 1   
    53   50   51 2   
    54   50   62 1   
    55   52   53 1   
    56   52   58 1   
    57   52   59 1   
    58   53   54 1   
    59   53   55 2   
    60   54   60 1   
    61   54   61 1   
    62   62   63 1   
    63   62   66 1   
    64   63   64 1   
    65   63   67 1   
    66   63   68 1   
    67   64   65 2   
    68   64   69 1   
    69   69   70 1   
    70   69   76 1   
    71   70   71 1   
    72   70   73 1   
    73   70   77 1   
    74   71   72 2   
    75   71   83 1   
    76   73   74 1   
    77   73   75 1   
    78   73   78 1   
    79   74   80 1   
    80   74   81 1   
    81   74   82 1   
    82   75   79 1   
    83   83   84 1   
    84   83   91 1   
    85   84   85 1   
    86   84   87 1   
    87   84   92 1   
    88   85   86 2   
    89   85  102 1   
    90   87   88 1   
    91   87   89 1   
    92   87   93 1   
    93   88   90 1   
    94   88   94 1   
    95   88   95 1   
    96   89   96 1   
    97   89   97 1   
    98   89   98 1   
    99   90   99 1   
   100   90  100 1   
   101   90  101 1   
   102  102  103 1   
   103  102  110 1   
   104  103  104 1   
   105  103  106 1   
   106  103  111 1   
   107  104  105 2   
   108  104  114 1   
   109  106  107 1   
   110  106  112 1   
   111  106  113 1   
   112  107  108 1   
   113  107  109 1   
   114  114  115 1   
   115  114  125 1   
   116  115  116 1   
   117  115  118 1   
   118  115  126 1   
   119  116  117 2   
   120  116  134 1   
   121  118  119 1   
   122  118  127 1   
   123  118  128 1   
   124  119  120 ar  
   125  119  121 ar  
   126  120  122 ar  
   127  120  129 1   
   128  121  123 ar  
   129  121  130 1   
   130  122  124 ar  
   131  122  131 1   
   132  123  124 ar  
   133  123  132 1   
   134  124  133 1   
   135  134  135 1   
   136  134  140 1   
   137  135  136 1   
   138  135  138 1   
   139  135  141 1   
   140  136  137 2   
   141  136  148 1   
   142  138  139 1   
   143  138  142 1   
   144  138  143 1   
   145  139  140 1   
   146  139  144 1   
   147  139  145 1   
   148  140  146 1   
   149  140  147 1   
   150  148  149 1   
   151  148  157 1   
   152  149  150 1   
   153  149  152 1   
   154  149  158 1   
   155  150  151 2   
   156  150  163 1   
   157  152  153 1   
   158  152  159 1   
   159  152  160 1   
   160  153  154 1   
   161  153  161 1   
   162  153  162 1   
   163  154  155 1   
   164  154  156 1   
   165  163  164 1   
   166  163  168 1   
   167  164  165 1   
   168  164  166 1   
   169  164  167 1   
   170  170  171 1   
   171  170  172 1   
   172  173  174 1   
   173  173  175 1   
@<TRIPOS>SUBSTRUCTURE
     1 MOL         1 TEMP              0 ****  ****    0 ROOT
