@<TRIPOS>MOLECULE
MOL
  179   176     1     0     0
SMALL
resp


@<TRIPOS>ATOM
      1 C1          2.1870    3.4020    4.0780 c3        1 MOL     -0.271656
      2 C2          1.3030    3.2660    2.7870 c         1 MOL      0.693565
      3 O1          1.6910    3.5640    1.6580 o         1 MOL     -0.627006
      4 H1          3.1530    3.8330    3.8130 hc        1 MOL      0.067438
      5 H2          1.6850    4.0520    4.7960 hc        1 MOL      0.067438
      6 H3          2.3380    2.4180    4.5210 hc        1 MOL      0.067438
      7 N1          0.0490    2.9450    2.9760 n         1 MOL     -0.683349
      8 C3         -1.0750    2.7460    2.0420 c3        1 MOL      0.446601
      9 C4         -1.7240    4.1200    1.6440 c         1 MOL      0.394532
     10 O2         -2.9110    4.3200    1.9620 o         1 MOL     -0.452594
     11 C5         -2.0570    1.6880    2.5860 c3        1 MOL     -0.342968
     12 C6         -3.0900    1.1930    1.5960 c         1 MOL      0.578296
     13 O3         -2.7930    1.0600    0.3530 o         1 MOL     -0.589171
     14 O4         -4.2500    0.8970    2.0110 o         1 MOL     -0.589171
     15 H4         -0.2610    2.6110    3.8840 hn        1 MOL      0.308652
     16 H5         -0.5970    2.2950    1.1660 h1        1 MOL      0.028278
     17 H6         -2.5690    2.2280    3.3810 hc        1 MOL      0.079415
     18 H7         -1.5440    0.8210    3.0030 hc        1 MOL      0.079415
     19 N2         -0.9500    4.9830    1.0200 n         1 MOL     -0.434179
     20 C7         -1.4750    6.3340    0.5630 c3        1 MOL     -0.061284
     21 C8         -2.3690    6.3230   -0.6750 c         1 MOL      0.403112
     22 O5         -3.0920    7.2350   -0.9990 o         1 MOL     -0.539942
     23 C9         -0.2630    7.3370    0.3530 c3        1 MOL     -0.017226
     24 C10         0.3060    7.8450    1.6350 c3        1 MOL      0.002386
     25 C11         1.5760    8.6690    1.2790 c3        1 MOL     -0.209246
     26 C12         2.7740    7.7450    0.8930 c3        1 MOL     -0.053825
     27 N3          3.5670    7.3000    2.0360 n4        1 MOL     -0.386948
     28 H8         -0.0090    4.6840    0.8060 hn        1 MOL      0.363449
     29 H9         -2.0940    6.6490    1.4070 h1        1 MOL      0.117312
     30 H10        -0.6400    8.1920   -0.2130 hc        1 MOL      0.055445
     31 H11         0.4890    6.8970   -0.3010 hc        1 MOL      0.055445
     32 H12         0.6640    7.0530    2.2880 hc        1 MOL      0.031466
     33 H13        -0.4360    8.5250    2.0660 hc        1 MOL      0.031466
     34 H14         1.7560    9.3660    2.0910 hc        1 MOL      0.105202
     35 H15         1.4130    9.2260    0.3560 hc        1 MOL      0.105202
     36 H16         3.4370    8.2800    0.2050 hx        1 MOL      0.120444
     37 H17         2.4000    6.8780    0.3440 hx        1 MOL      0.120444
     38 H18         4.2800    7.9330    2.3530 hn        1 MOL      0.342996
     39 H19         2.9780    6.9400    2.7720 hn        1 MOL      0.342996
     40 H20         4.2110    6.5770    1.7490 hn        1 MOL      0.342996
     41 N4         -2.2500    5.2510   -1.3360 n         1 MOL     -0.147358
     42 C13        -3.0470    4.9090   -2.4590 c3        1 MOL     -0.051343
     43 C14        -4.3840    4.2610   -2.1460 c         1 MOL      0.396636
     44 O6         -5.2830    4.3180   -2.9490 o         1 MOL     -0.494082
     45 C15        -2.3450    3.9490   -3.3840 c3        1 MOL     -0.263064
     46 C16        -1.9580    2.6950   -2.6260 c         1 MOL      0.836047
     47 O7         -2.4510    1.5940   -2.9410 o         1 MOL     -0.756674
     48 O8         -1.0840    2.8120   -1.7520 o         1 MOL     -0.756674
     49 H21        -1.5640    4.5880   -0.9990 hn        1 MOL      0.131760
     50 H22        -3.3050    5.7860   -3.0460 h1        1 MOL      0.115800
     51 H23        -1.5460    4.4010   -3.9720 hc        1 MOL      0.073285
     52 H24        -3.0390    3.6270   -4.1730 hc        1 MOL      0.073285
     53 N5         -4.5220    3.8150   -0.8550 n         1 MOL      0.065980
     54 C17        -5.7100    3.3250   -0.2100 c3        1 MOL     -0.295936
     55 C18        -6.2220    2.0860   -0.9760 c         1 MOL      0.634867
     56 O9         -7.3700    2.1040   -1.4180 o         1 MOL     -0.590935
     57 H25        -3.6860    3.7690   -0.2940 hn        1 MOL      0.028671
     58 H26        -6.3850    4.1760   -0.3150 h1        1 MOL      0.115399
     59 H27        -5.5610    3.0550    0.8370 h1        1 MOL      0.115399
     60 N6         -5.4470    1.0610   -1.0020 n         1 MOL     -0.257622
     61 C19        -5.9520   -0.2580   -1.4530 c3        1 MOL     -0.096548
     62 C20        -6.0470   -1.4590   -0.5000 c         1 MOL      0.447909
     63 O10        -6.5290   -2.5130   -0.8330 o         1 MOL     -0.489506
     64 C21        -5.2650   -0.6640   -2.7940 c3        1 MOL      0.014393
     65 C22        -3.9410   -1.4810   -2.7520 c         1 MOL      0.418094
     66 N7         -3.6490   -2.1930   -3.7710 n         1 MOL     -0.673161
     67 O11        -3.0880   -1.3480   -1.8930 o         1 MOL     -0.461917
     68 H28        -4.6450    1.0520   -0.3960 hn        1 MOL      0.025323
     69 H29        -7.0030   -0.1600   -1.7530 h1        1 MOL      0.142062
     70 H30        -5.1430    0.2190   -3.4150 hc        1 MOL      0.043975
     71 H31        -6.0730   -1.1690   -3.3260 hc        1 MOL      0.043975
     72 H32        -4.3750   -2.3410   -4.4590 hn        1 MOL      0.344039
     73 H33        -2.7630   -2.6810   -3.7420 hn        1 MOL      0.344039
     74 N8         -5.9180   -1.1530    0.7960 n         1 MOL     -0.329558
     75 C23        -5.9610   -2.1420    1.8720 c3        1 MOL     -0.187982
     76 C24        -4.7610   -2.9320    2.0780 c         1 MOL      0.566497
     77 O12        -4.8590   -3.8730    2.8660 o         1 MOL     -0.554506
     78 H34        -5.6330   -0.2600    1.1440 hn        1 MOL      0.304120
     79 H35        -6.8080   -2.8190    1.7560 h1        1 MOL      0.122396
     80 H36        -6.1490   -1.6010    2.8010 h1        1 MOL      0.122396
     81 N9         -3.6540   -2.6960    1.3390 n         1 MOL     -0.387726
     82 C25        -2.5040   -3.6230    1.3960 c3        1 MOL      0.219420
     83 C26        -1.2220   -2.8200    1.2800 c         1 MOL      0.396019
     84 O13        -1.1530   -1.8260    0.5830 o         1 MOL     -0.537345
     85 C27        -2.5220   -4.6180    0.2230 c3        1 MOL      0.017023
     86 C28        -3.5740   -5.6980    0.2500 ca        1 MOL      0.168272
     87 C29        -4.6350   -5.8910   -0.7570 ca        1 MOL     -0.366245
     88 C30        -3.5720   -6.5810    1.3270 ca        1 MOL     -0.366245
     89 C31        -5.6110   -6.9030   -0.5910 ca        1 MOL     -0.018728
     90 C32        -4.4640   -7.7130    1.3650 ca        1 MOL     -0.018728
     91 C33        -5.4660   -7.8690    0.4340 ca        1 MOL      0.123310
     92 O14        -6.3940   -8.8360    0.5470 oh        1 MOL     -0.418803
     93 H37        -3.6410   -1.8100    0.8460 hn        1 MOL      0.258779
     94 H38        -2.4760   -4.2380    2.3010 h1        1 MOL     -0.020244
     95 H39        -1.5890   -5.1760    0.3570 hc        1 MOL     -0.012425
     96 H40        -2.5660   -4.0660   -0.7110 hc        1 MOL     -0.012425
     97 H41        -4.8450   -5.0900   -1.4400 ha        1 MOL      0.184506
     98 H42        -2.8380   -6.4570    2.0960 ha        1 MOL      0.184506
     99 H43        -6.3450   -7.0300   -1.3700 ha        1 MOL      0.089900
    100 H44        -4.3520   -8.4350    2.1490 ha        1 MOL      0.089900
    101 H45        -5.9720   -9.5620    0.9990 ho        1 MOL      0.330608
    102 N10        -0.2230   -3.3670    1.9890 n         1 MOL     -0.422493
    103 C34         1.1230   -2.7310    2.0950 c3        1 MOL     -0.069631
    104 C35         2.0240   -3.6850    1.2520 c         1 MOL      0.526447
    105 O15         2.2460   -4.8170    1.6880 o         1 MOL     -0.559124
    106 C36         1.5720   -2.5820    3.5590 c3        1 MOL      0.029027
    107 C37         0.8790   -1.3680    4.2440 c3        1 MOL     -0.057549
    108 C38         3.0920   -2.2790    3.5380 c3        1 MOL     -0.084668
    109 C39         1.0990   -1.4100    5.8220 c3        1 MOL     -0.288598
    110 H46        -0.4440   -4.1540    2.5770 hn        1 MOL      0.323027
    111 H47         1.0590   -1.8110    1.5130 h1        1 MOL      0.125973
    112 H48         1.3680   -3.5200    4.0800 hc        1 MOL      0.055475
    113 H49        -0.1800   -1.3200    3.9840 hc        1 MOL      0.064552
    114 H50         1.1670   -0.4370    3.7690 hc        1 MOL      0.064552
    115 H51         3.7650   -3.1050    3.2940 hc        1 MOL      0.025881
    116 H52         3.1910   -1.4730    2.8180 hc        1 MOL      0.025881
    117 H53         3.3810   -2.0620    4.5590 hc        1 MOL      0.025881
    118 H54         0.9150   -2.4280    6.1780 hc        1 MOL      0.083124
    119 H55         2.0900   -1.1500    6.1740 hc        1 MOL      0.083124
    120 H56         0.3660   -0.7150    6.2360 hc        1 MOL      0.083124
    121 N11         2.4650   -3.2350    0.0750 n         1 MOL     -0.309649
    122 C40         3.4690   -3.8710   -0.7950 c3        1 MOL      0.095325
    123 C41         4.9110   -3.4200   -0.5490 c         1 MOL      0.419424
    124 O16         5.1230   -2.4010    0.1250 o         1 MOL     -0.427439
    125 C42         3.1560   -3.6900   -2.2510 c3        1 MOL     -0.001054
    126 O17         3.2050   -2.3170   -2.7160 oh        1 MOL     -0.579606
    127 H57         2.2620   -2.2780   -0.1950 hn        1 MOL      0.264154
    128 H58         3.4790   -4.9490   -0.6950 h1        1 MOL      0.028164
    129 H59         2.1500   -4.0950   -2.3800 h1        1 MOL      0.064662
    130 H60         3.8800   -4.2700   -2.8210 h1        1 MOL      0.064662
    131 H61         2.5490   -1.8050   -2.2460 ho        1 MOL      0.353550
    132 N12         5.9110   -4.2220   -0.9560 n         1 MOL     -0.403649
    133 C43         7.3420   -4.0660   -0.5850 c3        1 MOL      0.037466
    134 C44         7.9500   -2.7180   -1.0720 c         1 MOL      0.524073
    135 O18         8.6940   -2.1480   -0.3000 o         1 MOL     -0.513336
    136 C45         8.0240   -5.3600   -1.1350 c3        1 MOL     -0.132319
    137 H62         5.5680   -5.0630   -1.4010 hn        1 MOL      0.272265
    138 H63         7.4330   -4.1200    0.5000 h1        1 MOL      0.106162
    139 H64         7.8970   -5.4490   -2.2080 hc        1 MOL      0.051151
    140 H65         9.0850   -5.3010   -0.9010 hc        1 MOL      0.051151
    141 H66         7.6740   -6.2860   -0.6750 hc        1 MOL      0.051151
    142 N13         7.4950   -2.1490   -2.2110 n         1 MOL     -0.456066
    143 C46         7.9980   -0.8080   -2.6310 c3        1 MOL      0.149629
    144 C47         7.4120    0.3910   -1.8660 c         1 MOL      0.328564
    145 O19         8.1150    1.3660   -1.5090 o         1 MOL     -0.506074
    146 C48         7.6190   -0.7730   -4.0810 c3        1 MOL     -0.256825
    147 H67         6.8780   -2.5860   -2.8730 hn        1 MOL      0.297523
    148 H68         9.0840   -0.7720   -2.5520 h1        1 MOL      0.092843
    149 H69         7.8980    0.1690   -4.5600 hc        1 MOL      0.069605
    150 H70         8.1980   -1.5360   -4.6030 hc        1 MOL      0.069605
    151 H71         6.5520   -0.9750   -4.2110 hc        1 MOL      0.069605
    152 N14         6.1580    0.3070   -1.4830 n         1 MOL     -0.126493
    153 C49         5.4950    1.5010   -0.7940 c3        1 MOL     -0.156005
    154 C50         6.0770    1.5270    0.6560 c         1 MOL      0.482174
    155 O20         6.3730    2.6070    1.2350 o         1 MOL     -0.582789
    156 C51         3.9580    1.4380   -0.8440 c3        1 MOL      0.042211
    157 C52         3.2080    0.5660    0.2380 c3        1 MOL      0.060067
    158 C53         1.7920    0.2040   -0.2980 c         1 MOL      0.769088
    159 O21         1.6620   -0.7700   -1.0820 o         1 MOL     -0.752600
    160 O22         0.8030    0.8400    0.0910 o         1 MOL     -0.752600
    161 H72         5.5980   -0.5110   -1.6880 hn        1 MOL      0.169735
    162 H73         5.8760    2.3710   -1.3220 h1        1 MOL      0.128307
    163 H74         3.6660    1.0090   -1.8020 hc        1 MOL     -0.001738
    164 H75         3.5130    2.4360   -0.8250 hc        1 MOL     -0.001738
    165 H76         3.0990    1.1940    1.1160 hc        1 MOL     -0.055735
    166 H77         3.6630   -0.3930    0.5120 hc        1 MOL     -0.055735
    167 N15         6.2680    0.3930    1.2980 n         1 MOL     -0.073469
    168 C54         6.9980    0.1580    2.5240 c3        1 MOL     -0.318009
    169 H78         8.0010    0.5780    2.4350 h1        1 MOL      0.120503
    170 H79         6.4770    0.6350    3.3550 h1        1 MOL      0.120503
    171 H80         7.0690   -0.9140    2.7050 h1        1 MOL      0.120503
    172 H81         5.9730   -0.4480    0.8260 hn        1 MOL      0.162874
    173 Ca1        -1.0490    0.0540   -1.3330 Ca        1 MOL      1.699232
    174 O23         0.6010    0.7430   -3.3260 oh        1 MOL     -0.840313
    175 H82         0.7410    1.4350   -3.9780 ho        1 MOL      0.414486
    176 H83         1.4700    0.4210   -3.1290 ho        1 MOL      0.414486
    177 O24        -0.1890   -1.9780   -2.9230 oh        1 MOL     -0.840313
    178 H84        -0.4700   -2.8720   -3.1220 ho        1 MOL      0.414486
    179 H85         0.2820   -1.6960   -3.7030 ho        1 MOL      0.414486
@<TRIPOS>BOND
     1    1    2 1   
     2    1    4 1   
     3    1    5 1   
     4    1    6 1   
     5    2    3 2   
     6    2    7 1   
     7    7    8 1   
     8    7   15 1   
     9    8    9 1   
    10    8   11 1   
    11    8   16 1   
    12    9   10 2   
    13    9   19 1   
    14   11   12 1   
    15   11   17 1   
    16   11   18 1   
    17   12   13 1   
    18   12   14 1   
    19   19   20 1   
    20   19   28 1   
    21   20   21 1   
    22   20   23 1   
    23   20   29 1   
    24   21   22 2   
    25   21   41 1   
    26   23   24 1   
    27   23   30 1   
    28   23   31 1   
    29   24   25 1   
    30   24   32 1   
    31   24   33 1   
    32   25   26 1   
    33   25   34 1   
    34   25   35 1   
    35   26   27 1   
    36   26   36 1   
    37   26   37 1   
    38   27   38 1   
    39   27   39 1   
    40   27   40 1   
    41   41   42 1   
    42   41   49 1   
    43   42   43 1   
    44   42   45 1   
    45   42   50 1   
    46   43   44 2   
    47   43   53 1   
    48   45   46 1   
    49   45   51 1   
    50   45   52 1   
    51   46   47 1   
    52   46   48 1   
    53   53   54 1   
    54   53   57 1   
    55   54   55 1   
    56   54   58 1   
    57   54   59 1   
    58   55   56 2   
    59   55   60 1   
    60   60   61 1   
    61   60   68 1   
    62   61   62 1   
    63   61   64 1   
    64   61   69 1   
    65   62   63 2   
    66   62   74 1   
    67   64   65 1   
    68   64   70 1   
    69   64   71 1   
    70   65   66 1   
    71   65   67 2   
    72   66   72 1   
    73   66   73 1   
    74   74   75 1   
    75   74   78 1   
    76   75   76 1   
    77   75   79 1   
    78   75   80 1   
    79   76   77 2   
    80   76   81 1   
    81   81   82 1   
    82   81   93 1   
    83   82   83 1   
    84   82   85 1   
    85   82   94 1   
    86   83   84 2   
    87   83  102 1   
    88   85   86 1   
    89   85   95 1   
    90   85   96 1   
    91   86   87 ar  
    92   86   88 ar  
    93   87   89 ar  
    94   87   97 1   
    95   88   90 ar  
    96   88   98 1   
    97   89   91 ar  
    98   89   99 1   
    99   90   91 ar  
   100   90  100 1   
   101   91   92 1   
   102   92  101 1   
   103  102  103 1   
   104  102  110 1   
   105  103  104 1   
   106  103  106 1   
   107  103  111 1   
   108  104  105 2   
   109  104  121 1   
   110  106  107 1   
   111  106  108 1   
   112  106  112 1   
   113  107  109 1   
   114  107  113 1   
   115  107  114 1   
   116  108  115 1   
   117  108  116 1   
   118  108  117 1   
   119  109  118 1   
   120  109  119 1   
   121  109  120 1   
   122  121  122 1   
   123  121  127 1   
   124  122  123 1   
   125  122  125 1   
   126  122  128 1   
   127  123  124 2   
   128  123  132 1   
   129  125  126 1   
   130  125  129 1   
   131  125  130 1   
   132  126  131 1   
   133  132  133 1   
   134  132  137 1   
   135  133  134 1   
   136  133  136 1   
   137  133  138 1   
   138  134  135 2   
   139  134  142 1   
   140  136  139 1   
   141  136  140 1   
   142  136  141 1   
   143  142  143 1   
   144  142  147 1   
   145  143  144 1   
   146  143  146 1   
   147  143  148 1   
   148  144  145 2   
   149  144  152 1   
   150  146  149 1   
   151  146  150 1   
   152  146  151 1   
   153  152  153 1   
   154  152  161 1   
   155  153  154 1   
   156  153  156 1   
   157  153  162 1   
   158  154  155 2   
   159  154  167 1   
   160  156  157 1   
   161  156  163 1   
   162  156  164 1   
   163  157  158 1   
   164  157  165 1   
   165  157  166 1   
   166  158  159 1   
   167  158  160 1   
   168  167  168 1   
   169  167  172 1   
   170  168  169 1   
   171  168  170 1   
   172  168  171 1   
   173  174  175 1   
   174  174  176 1   
   175  177  178 1   
   176  177  179 1   
@<TRIPOS>SUBSTRUCTURE
     1 MOL         1 TEMP              0 ****  ****    0 ROOT
