@<TRIPOS>MOLECULE
MOL
  179   176     1     0     0
SMALL
resp


@<TRIPOS>ATOM
      1 C1          0.2890    3.6060    6.5770 c3        1 MOL     -0.247586
      2 C2          0.1420    3.1630    5.0790 c         1 MOL      0.762264
      3 O1          1.1060    2.8420    4.4010 o         1 MOL     -0.622676
      4 H1          0.0370    4.6620    6.6690 hc        1 MOL      0.060261
      5 H2         -0.3840    3.0150    7.1990 hc        1 MOL      0.060261
      6 H3          1.3170    3.4490    6.9040 hc        1 MOL      0.060261
      7 N1         -1.0700    3.0320    4.6050 n         1 MOL     -0.656663
      8 C3         -1.2760    2.5530    3.2190 c3        1 MOL      0.076543
      9 C4         -1.4470    3.7640    2.2760 c         1 MOL      0.691593
     10 O2         -2.1260    4.6980    2.5970 o         1 MOL     -0.600558
     11 C5         -2.4970    1.6270    3.1280 c3        1 MOL     -0.243272
     12 C6         -2.7000    0.9690    1.7900 c         1 MOL      0.888697
     13 O3         -2.8420   -0.2250    1.5910 o         1 MOL     -0.877963
     14 O4         -2.7320    1.5880    0.7220 o         1 MOL     -0.877963
     15 H4         -1.8370    3.2290    5.2340 hn        1 MOL      0.344769
     16 H5         -0.3990    2.0360    2.8290 h1        1 MOL      0.051365
     17 H6         -3.4420    2.1120    3.4000 hc        1 MOL      0.079092
     18 H7         -2.2620    0.8010    3.8090 hc        1 MOL      0.079092
     19 N2         -0.9340    3.7830    1.0820 n         1 MOL     -0.406054
     20 C7         -0.9760    4.9390    0.1510 c3        1 MOL     -0.167773
     21 C8         -2.2560    5.0650   -0.7180 c         1 MOL      0.630898
     22 O5         -2.4980    6.2190   -1.0700 o         1 MOL     -0.604380
     23 C9          0.2760    4.8000   -0.6370 c3        1 MOL      0.046243
     24 C10         0.5640    6.0250   -1.4770 c3        1 MOL     -0.231985
     25 C11         1.7600    5.8400   -2.3470 c3        1 MOL     -0.023004
     26 C12         1.8810    7.0380   -3.3330 c3        1 MOL      0.196507
     27 N3          3.2720    7.2200   -3.8690 n4        1 MOL     -0.598450
     28 H8         -0.4140    2.9720    0.7500 hn        1 MOL      0.209343
     29 H9         -1.0090    5.8850    0.6850 h1        1 MOL      0.126824
     30 H10         0.0970    3.9010   -1.2190 hc        1 MOL      0.076725
     31 H11         1.1300    4.4950   -0.0390 hc        1 MOL      0.076725
     32 H12         0.8870    6.8200   -0.8130 hc        1 MOL      0.081629
     33 H13        -0.2600    6.3850   -2.0800 hc        1 MOL      0.081629
     34 H14         1.8000    4.9410   -2.9550 hc        1 MOL      0.033689
     35 H15         2.6070    5.8440   -1.6640 hc        1 MOL      0.033689
     36 H16         1.4660    7.9090   -2.8360 hx        1 MOL      0.056529
     37 H17         1.1370    6.9240   -4.1200 hx        1 MOL      0.056529
     38 H18         3.9130    7.3140   -3.0890 hn        1 MOL      0.383173
     39 H19         3.5050    6.4280   -4.4430 hn        1 MOL      0.383173
     40 H20         3.4320    8.0970   -4.3430 hn        1 MOL      0.383173
     41 N4         -2.9990    4.0180   -0.9820 n         1 MOL     -0.423876
     42 C13        -4.3170    4.0950   -1.6400 c3        1 MOL      0.159377
     43 C14        -5.3730    3.4720   -0.7460 c         1 MOL      0.390189
     44 O6         -6.5580    3.5340   -1.0280 o         1 MOL     -0.548514
     45 C15        -4.3260    3.3350   -2.9600 c3        1 MOL     -0.375230
     46 C16        -3.7310    1.9180   -2.9870 c         1 MOL      0.806452
     47 O7         -3.3480    1.4180   -4.0400 o         1 MOL     -0.711675
     48 O8         -3.7550    1.1700   -1.9670 o         1 MOL     -0.711675
     49 H21        -2.7080    3.1210   -0.6100 hn        1 MOL      0.325324
     50 H22        -4.6240    5.1240   -1.8120 h1        1 MOL      0.102887
     51 H23        -3.7740    4.0600   -3.5700 hc        1 MOL      0.099520
     52 H24        -5.3520    3.2020   -3.3000 hc        1 MOL      0.099520
     53 N5         -5.0680    2.8170    0.4100 n         1 MOL     -0.235875
     54 C17        -5.9410    2.1380    1.3500 c3        1 MOL     -0.015424
     55 C18        -6.5420    0.7830    0.8030 c         1 MOL      0.489890
     56 O9         -7.4260    0.2460    1.4600 o         1 MOL     -0.604765
     57 H25        -4.0820    2.6060    0.5130 hn        1 MOL      0.123881
     58 H26        -6.7320    2.8600    1.5680 h1        1 MOL      0.072176
     59 H27        -5.4840    2.0590    2.3280 h1        1 MOL      0.072176
     60 N6         -5.9890    0.2000   -0.2460 n         1 MOL     -0.225917
     61 C19        -6.5480   -0.9630   -0.8880 c3        1 MOL      0.074928
     62 C20        -6.3600   -2.2070    0.0320 c         1 MOL      0.390623
     63 O10        -6.7280   -3.2940   -0.3890 o         1 MOL     -0.539351
     64 C21        -6.0400   -1.1640   -2.3320 c3        1 MOL     -0.684178
     65 C22        -4.7370   -1.9500   -2.3160 c         1 MOL      0.865997
     66 N7         -4.6660   -2.8220   -3.2660 n         1 MOL     -0.715742
     67 O11        -3.8740   -1.7420   -1.5310 o         1 MOL     -0.642708
     68 H28        -5.1680    0.5540   -0.7110 hn        1 MOL      0.227326
     69 H29        -7.6240   -0.7790   -0.8450 h1        1 MOL      0.125206
     70 H30        -5.9760   -0.1690   -2.7810 hc        1 MOL      0.216502
     71 H31        -6.8070   -1.7370   -2.8570 hc        1 MOL      0.216502
     72 H32        -5.5030   -2.9420   -3.8180 hn        1 MOL      0.331655
     73 H33        -3.9120   -3.4960   -3.3550 hn        1 MOL      0.331655
     74 N8         -5.8600   -2.1640    1.2810 n         1 MOL     -0.113246
     75 C23        -5.7750   -3.2140    2.2720 c3        1 MOL     -0.355914
     76 C24        -4.3820   -3.9320    2.3770 c         1 MOL      0.560444
     77 O12        -4.2610   -4.7130    3.3200 o         1 MOL     -0.581543
     78 H34        -5.5030   -1.2910    1.6360 hn        1 MOL      0.255897
     79 H35        -6.5780   -3.9240    2.1130 h1        1 MOL      0.157276
     80 H36        -5.8670   -2.7920    3.2740 h1        1 MOL      0.157276
     81 N9         -3.3970   -3.5310    1.6370 n         1 MOL     -0.253699
     82 C25        -2.0420   -4.1320    1.7340 c3        1 MOL      0.048152
     83 C26        -0.8960   -3.1930    1.4070 c         1 MOL      0.575995
     84 O13        -0.9930   -2.3920    0.4300 o         1 MOL     -0.584931
     85 C27        -2.0100   -5.4760    0.9770 c3        1 MOL     -0.070385
     86 C28        -1.8760   -5.3830   -0.5090 ca        1 MOL     -0.037540
     87 C29        -0.7060   -4.8590   -1.0890 ca        1 MOL     -0.074772
     88 C30        -2.9220   -5.6870   -1.4210 ca        1 MOL     -0.074772
     89 C31        -0.5500   -4.8240   -2.5130 ca        1 MOL     -0.315260
     90 C32        -2.8100   -5.6280   -2.8460 ca        1 MOL     -0.315260
     91 C33        -1.5910   -5.2670   -3.4460 ca        1 MOL      0.366399
     92 O14        -1.3880   -5.2840   -4.7700 oh        1 MOL     -0.499319
     93 H37        -3.5840   -2.7840    0.9800 hn        1 MOL      0.180341
     94 H38        -1.9100   -4.4050    2.7790 h1        1 MOL      0.051654
     95 H39        -3.0160   -5.8590    1.1690 hc        1 MOL      0.062131
     96 H40        -1.3860   -6.1630    1.5480 hc        1 MOL      0.062131
     97 H41         0.1500   -4.6370   -0.4620 ha        1 MOL      0.119649
     98 H42        -3.8280   -6.0750   -0.9940 ha        1 MOL      0.119649
     99 H43         0.3470   -4.3670   -2.9110 ha        1 MOL      0.140314
    100 H44        -3.6270   -5.9480   -3.4740 ha        1 MOL      0.140314
    101 H45        -2.1700   -5.6260   -5.1990 ho        1 MOL      0.380953
    102 N10         0.2320   -3.4070    2.0750 n         1 MOL     -0.470825
    103 C34         1.4970   -2.7130    1.9230 c3        1 MOL      0.004565
    104 C35         2.5510   -3.5210    1.1730 c         1 MOL      0.438740
    105 O15         2.8120   -4.6930    1.4100 o         1 MOL     -0.530464
    106 C36         1.9630   -2.3230    3.3020 c3        1 MOL      0.119943
    107 C37         0.9790   -1.6380    4.2630 c3        1 MOL     -0.325973
    108 C38         3.2630   -1.4570    3.1840 c3        1 MOL     -0.077657
    109 C39         0.4820   -0.2390    3.7040 c3        1 MOL     -0.017266
    110 H46         0.2660   -4.1390    2.7630 hn        1 MOL      0.301291
    111 H47         1.3160   -1.8480    1.2830 h1        1 MOL      0.188118
    112 H48         2.3260   -3.2220    3.8040 hc        1 MOL      0.010650
    113 H49         1.4270   -1.4830    5.2480 hc        1 MOL      0.085975
    114 H50         0.0900   -2.2500    4.4060 hc        1 MOL      0.085975
    115 H51         2.9980   -0.5760    2.6070 hc        1 MOL      0.017438
    116 H52         3.7030   -1.1940    4.1490 hc        1 MOL      0.017438
    117 H53         4.0920   -2.0260    2.7370 hc        1 MOL      0.017438
    118 H54        -0.0290    0.2750    4.5120 hc        1 MOL      0.048641
    119 H55         1.3440    0.3750    3.4340 hc        1 MOL      0.048641
    120 H56        -0.1690   -0.3380    2.8290 hc        1 MOL      0.048641
    121 N11         3.2040   -2.7850    0.2480 n         1 MOL     -0.066984
    122 C40         4.4890   -3.2790   -0.3070 c3        1 MOL     -0.006511
    123 C41         5.7730   -2.6330    0.2760 c         1 MOL      0.456451
    124 O16         5.7460   -1.6370    0.9960 o         1 MOL     -0.407736
    125 C42         4.4200   -2.9680   -1.7370 c3        1 MOL     -0.080276
    126 O17         4.1300   -1.6300   -2.0780 oh        1 MOL     -0.470905
    127 H57         2.9100   -1.8370    0.0510 hn        1 MOL      0.042777
    128 H58         4.5960   -4.3360   -0.0680 h1        1 MOL      0.083455
    129 H59         3.5800   -3.5400   -2.1410 h1        1 MOL      0.059084
    130 H60         5.2920   -3.3400   -2.2700 h1        1 MOL      0.059084
    131 H61         4.2030   -1.6020   -3.0270 ho        1 MOL      0.401822
    132 N12         6.9270   -3.1870   -0.1450 n         1 MOL     -0.414453
    133 C43         8.1760   -2.5300    0.0910 c3        1 MOL      0.091325
    134 C44         8.2370   -1.1870   -0.5950 c         1 MOL      0.361550
    135 O18         8.7280   -0.1960   -0.0250 o         1 MOL     -0.474489
    136 C45         9.2700   -3.4320   -0.4220 c3        1 MOL     -0.357087
    137 H62         6.9140   -4.0870   -0.6130 hn        1 MOL      0.289922
    138 H63         8.1840   -2.3980    1.1810 h1        1 MOL      0.114533
    139 H64         9.3840   -4.3160    0.2040 hc        1 MOL      0.113937
    140 H65         9.0850   -3.7370   -1.4560 hc        1 MOL      0.113937
    141 H66        10.2590   -2.9750   -0.3570 hc        1 MOL      0.113937
    142 N13         7.5790   -0.9090   -1.7810 n         1 MOL     -0.248893
    143 C46         7.4910    0.4580   -2.4400 c3        1 MOL      0.060080
    144 C47         6.6560    1.4320   -1.5310 c         1 MOL      0.369827
    145 O19         7.0200    2.5940   -1.3460 o         1 MOL     -0.529711
    146 C48         6.9010    0.2550   -3.8610 c3        1 MOL     -0.206937
    147 H67         7.3770   -1.7250   -2.3490 hn        1 MOL      0.215614
    148 H68         8.5340    0.7320   -2.5070 h1        1 MOL      0.096457
    149 H69         7.5190   -0.4750   -4.3720 hc        1 MOL      0.059374
    150 H70         5.8990   -0.1500   -3.7590 hc        1 MOL      0.059374
    151 H71         6.8590    1.1930   -4.4220 hc        1 MOL      0.059374
    152 N14         5.5430    1.0340   -0.9350 n         1 MOL     -0.023947
    153 C49         4.7440    1.8480    0.0200 c3        1 MOL     -0.247477
    154 C50         5.3760    1.9350    1.3820 c         1 MOL      0.562188
    155 O20         5.2100    2.9430    2.0660 o         1 MOL     -0.578590
    156 C51         3.3960    1.2130    0.1950 c3        1 MOL      0.075638
    157 C52         2.4460    1.4540   -1.0250 c3        1 MOL      0.038859
    158 C53         1.1410    0.6650   -0.6550 c         1 MOL      0.554030
    159 O21         1.0480   -0.5610   -0.7840 o         1 MOL     -0.685826
    160 O22         0.2550    1.3070   -0.0740 o         1 MOL     -0.685826
    161 H72         5.2550    0.0780   -1.0730 hn        1 MOL      0.032017
    162 H73         4.6100    2.8370   -0.4150 h1        1 MOL      0.106151
    163 H74         2.9690    1.5780    1.1250 hc        1 MOL      0.071973
    164 H75         3.5060    0.1340    0.3440 hc        1 MOL      0.071973
    165 H76         2.8950    1.0670   -1.9490 hc        1 MOL     -0.050653
    166 H77         2.2340    2.5180   -1.1180 hc        1 MOL     -0.050653
    167 N15         6.1230    0.9660    1.8810 n         1 MOL     -0.134182
    168 C54         6.8160    1.1400    3.1870 c3        1 MOL     -0.280888
    169 H78         7.8900    1.2330    3.0190 h1        1 MOL      0.114288
    170 H79         6.4460    2.0390    3.6780 h1        1 MOL      0.114288
    171 H80         6.6220    0.2730    3.8200 h1        1 MOL      0.114288
    172 H81         6.2510    0.1490    1.3120 hn        1 MOL      0.149225
    173 Ca1        -1.8320   -0.2170   -0.8040 Ca        1 MOL      1.820469
    174 O23        -1.2150   -1.4410   -3.1020 oh        1 MOL     -0.870686
    175 H82        -1.5500   -1.7120   -3.9610 ho        1 MOL      0.410912
    176 H83        -0.2930   -1.6960   -3.1120 ho        1 MOL      0.410912
    177 O24        -0.7690    1.3410   -3.0410 oh        1 MOL     -0.870686
    178 H84        -1.5180    1.0740   -3.5590 ho        1 MOL      0.410912
    179 H85        -0.0050    0.9880   -3.5080 ho        1 MOL      0.410912
@<TRIPOS>BOND
     1    1    2 1   
     2    1    4 1   
     3    1    5 1   
     4    1    6 1   
     5    2    3 2   
     6    2    7 1   
     7    7    8 1   
     8    7   15 1   
     9    8    9 1   
    10    8   11 1   
    11    8   16 1   
    12    9   10 2   
    13    9   19 1   
    14   11   12 1   
    15   11   17 1   
    16   11   18 1   
    17   12   13 1   
    18   12   14 1   
    19   19   20 1   
    20   19   28 1   
    21   20   21 1   
    22   20   23 1   
    23   20   29 1   
    24   21   22 2   
    25   21   41 1   
    26   23   24 1   
    27   23   30 1   
    28   23   31 1   
    29   24   25 1   
    30   24   32 1   
    31   24   33 1   
    32   25   26 1   
    33   25   34 1   
    34   25   35 1   
    35   26   27 1   
    36   26   36 1   
    37   26   37 1   
    38   27   38 1   
    39   27   39 1   
    40   27   40 1   
    41   41   42 1   
    42   41   49 1   
    43   42   43 1   
    44   42   45 1   
    45   42   50 1   
    46   43   44 2   
    47   43   53 1   
    48   45   46 1   
    49   45   51 1   
    50   45   52 1   
    51   46   47 1   
    52   46   48 1   
    53   53   54 1   
    54   53   57 1   
    55   54   55 1   
    56   54   58 1   
    57   54   59 1   
    58   55   56 2   
    59   55   60 1   
    60   60   61 1   
    61   60   68 1   
    62   61   62 1   
    63   61   64 1   
    64   61   69 1   
    65   62   63 2   
    66   62   74 1   
    67   64   65 1   
    68   64   70 1   
    69   64   71 1   
    70   65   66 1   
    71   65   67 2   
    72   66   72 1   
    73   66   73 1   
    74   74   75 1   
    75   74   78 1   
    76   75   76 1   
    77   75   79 1   
    78   75   80 1   
    79   76   77 2   
    80   76   81 1   
    81   81   82 1   
    82   81   93 1   
    83   82   83 1   
    84   82   85 1   
    85   82   94 1   
    86   83   84 2   
    87   83  102 1   
    88   85   86 1   
    89   85   95 1   
    90   85   96 1   
    91   86   87 ar  
    92   86   88 ar  
    93   87   89 ar  
    94   87   97 1   
    95   88   90 ar  
    96   88   98 1   
    97   89   91 ar  
    98   89   99 1   
    99   90   91 ar  
   100   90  100 1   
   101   91   92 1   
   102   92  101 1   
   103  102  103 1   
   104  102  110 1   
   105  103  104 1   
   106  103  106 1   
   107  103  111 1   
   108  104  105 2   
   109  104  121 1   
   110  106  107 1   
   111  106  108 1   
   112  106  112 1   
   113  107  109 1   
   114  107  113 1   
   115  107  114 1   
   116  108  115 1   
   117  108  116 1   
   118  108  117 1   
   119  109  118 1   
   120  109  119 1   
   121  109  120 1   
   122  121  122 1   
   123  121  127 1   
   124  122  123 1   
   125  122  125 1   
   126  122  128 1   
   127  123  124 2   
   128  123  132 1   
   129  125  126 1   
   130  125  129 1   
   131  125  130 1   
   132  126  131 1   
   133  132  133 1   
   134  132  137 1   
   135  133  134 1   
   136  133  136 1   
   137  133  138 1   
   138  134  135 2   
   139  134  142 1   
   140  136  139 1   
   141  136  140 1   
   142  136  141 1   
   143  142  143 1   
   144  142  147 1   
   145  143  144 1   
   146  143  146 1   
   147  143  148 1   
   148  144  145 2   
   149  144  152 1   
   150  146  149 1   
   151  146  150 1   
   152  146  151 1   
   153  152  153 1   
   154  152  161 1   
   155  153  154 1   
   156  153  156 1   
   157  153  162 1   
   158  154  155 2   
   159  154  167 1   
   160  156  157 1   
   161  156  163 1   
   162  156  164 1   
   163  157  158 1   
   164  157  165 1   
   165  157  166 1   
   166  158  159 1   
   167  158  160 1   
   168  167  168 1   
   169  167  172 1   
   170  168  169 1   
   171  168  170 1   
   172  168  171 1   
   173  174  175 1   
   174  174  176 1   
   175  177  178 1   
   176  177  179 1   
@<TRIPOS>SUBSTRUCTURE
     1 MOL         1 TEMP              0 ****  ****    0 ROOT
