@<TRIPOS>MOLECULE
MOL
  189   185     1     0     0
SMALL
resp


@<TRIPOS>ATOM
      1 C1          0.4240   -3.5840    6.0080 c3        1 MOL     -0.334080
      2 C2          1.1090   -2.9880    4.7610 c         1 MOL      0.701314
      3 O1          1.2170   -1.7580    4.5990 o         1 MOL     -0.609483
      4 H1         -0.2740   -2.8560    6.4220 hc        1 MOL      0.085560
      5 H2         -0.1170   -4.4880    5.7290 hc        1 MOL      0.085560
      6 H3          1.1790   -3.8280    6.7560 hc        1 MOL      0.085560
      7 N1          1.5210   -3.8700    3.8900 n         1 MOL     -0.565780
      8 C3          2.2090   -3.5920    2.6890 c3        1 MOL      0.232900
      9 C4          2.0560   -4.6880    1.5760 c         1 MOL      0.434840
     10 O2          2.1380   -5.8580    1.8890 o         1 MOL     -0.568203
     11 C5          3.6630   -3.2830    2.9950 c3        1 MOL     -0.326393
     12 C6          4.3740   -2.6380    1.8670 c         1 MOL      0.778859
     13 O3          3.7750   -2.2590    0.8560 o         1 MOL     -0.682112
     14 O4          5.5140   -2.3590    2.2130 o         1 MOL     -0.682112
     15 H4          1.3810   -4.8240    4.1840 hn        1 MOL      0.299796
     16 H5          1.7160   -2.6920    2.3050 h1        1 MOL      0.002241
     17 H6          4.1580   -4.2310    3.2030 hc        1 MOL      0.082587
     18 H7          3.7510   -2.6630    3.8860 hc        1 MOL      0.082587
     19 N2          1.7290   -4.3330    0.3520 n         1 MOL     -0.173016
     20 C7          1.5900   -5.2350   -0.7760 c3        1 MOL     -0.038434
     21 C8          2.7410   -5.2310   -1.7120 c         1 MOL      0.685219
     22 O5          3.1200   -6.2460   -2.2710 o         1 MOL     -0.619579
     23 C9          0.2410   -5.0300   -1.5660 c3        1 MOL      0.116615
     24 C10        -0.9870   -4.9430   -0.5590 c3        1 MOL      0.069543
     25 C11         0.0060   -6.1070   -2.6430 c3        1 MOL     -0.346406
     26 C12        -1.2140   -6.1890    0.3050 c3        1 MOL     -0.139006
     27 H8          1.5880   -3.3920    0.0260 hn        1 MOL      0.285755
     28 H9          1.6000   -6.2410   -0.3580 h1        1 MOL      0.053285
     29 H10         0.2910   -4.0540   -2.0480 hc        1 MOL      0.018581
     30 H11        -1.8970   -4.6780   -1.1100 hc        1 MOL      0.006507
     31 H12        -0.7920   -4.1860    0.2070 hc        1 MOL      0.006507
     32 H13         0.5840   -5.7990   -3.5090 hc        1 MOL      0.077730
     33 H14         0.2270   -7.1350   -2.3510 hc        1 MOL      0.077730
     34 H15        -1.0620   -6.1820   -2.8270 hc        1 MOL      0.077730
     35 H16        -0.3830   -6.4930    0.9450 hc        1 MOL      0.018114
     36 H17        -2.0620   -5.9850    0.9570 hc        1 MOL      0.018114
     37 H18        -1.4210   -7.0710   -0.3000 hc        1 MOL      0.018114
     38 N3          3.6010   -4.2020   -1.6820 n         1 MOL     -0.416551
     39 C13         4.5540   -3.8980   -2.7300 c3        1 MOL      0.167677
     40 C14         5.9560   -3.3720   -2.3710 c         1 MOL      0.351218
     41 O6          6.9170   -3.5730   -3.1250 o         1 MOL     -0.547854
     42 C15         3.8780   -2.9670   -3.7850 c3        1 MOL     -0.437248
     43 C16         3.0730   -1.7340   -3.1940 c         1 MOL      0.805103
     44 O7          3.3720   -1.2250   -2.1190 o         1 MOL     -0.687078
     45 O8          2.1770   -1.1960   -3.8430 o         1 MOL     -0.687078
     46 H19         3.4510   -3.4750   -0.9960 hn        1 MOL      0.077849
     47 H20         4.7720   -4.8750   -3.1850 h1        1 MOL      0.079924
     48 H21         3.2140   -3.6780   -4.2860 hc        1 MOL      0.109361
     49 H22         4.5670   -2.7290   -4.5920 hc        1 MOL      0.109361
     50 N4          6.1310   -2.6860   -1.2190 n         1 MOL     -0.092705
     51 C17         7.4030   -2.1730   -0.7030 c3        1 MOL     -0.241442
     52 C18         7.6680   -0.7970   -1.3640 c         1 MOL      0.562535
     53 O9          8.8060   -0.3510   -1.3710 o         1 MOL     -0.595054
     54 H23         5.2890   -2.3760   -0.7680 hn        1 MOL      0.073631
     55 H24         8.2690   -2.7570   -1.0020 h1        1 MOL      0.116587
     56 H25         7.2920   -2.0730    0.3820 h1        1 MOL      0.116587
     57 N5          6.6390   -0.0300   -1.7650 n         1 MOL     -0.294808
     58 C19         6.6570    1.2960   -2.4000 c3        1 MOL     -0.124488
     59 C20         7.0150    2.4470   -1.4140 c         1 MOL      0.568860
     60 O10         7.6260    3.3790   -1.8540 o         1 MOL     -0.589462
     61 C21         5.3540    1.6370   -3.2100 c3        1 MOL     -0.183106
     62 C22         4.0750    1.9900   -2.3580 c         1 MOL      0.748212
     63 O11         3.9950    1.7280   -1.1650 o         1 MOL     -0.689193
     64 O12         3.1170    2.3640   -3.0350 o         1 MOL     -0.689193
     65 H26         5.6890   -0.3490   -1.6380 hn        1 MOL      0.294539
     66 H27         7.4780    1.2930   -3.1140 h1        1 MOL      0.109555
     67 H28         5.0920    0.6930   -3.6830 hc        1 MOL      0.063623
     68 H29         5.5030    2.3520   -4.0200 hc        1 MOL      0.063623
     69 N6          6.7110    2.3440   -0.1230 n         1 MOL     -0.296148
     70 C23         6.9280    3.4360    0.8800 c3        1 MOL     -0.003557
     71 C24         5.6630    4.2780    1.1970 c         1 MOL      0.506208
     72 O13         5.8880    5.3020    1.8770 o         1 MOL     -0.585903
     73 H30         6.0810    1.5750    0.0570 hn        1 MOL      0.149197
     74 H31         7.7850    4.0390    0.5940 h1        1 MOL      0.060451
     75 H32         7.2400    2.9520    1.8130 h1        1 MOL      0.060451
     76 N7          4.4040    3.8410    0.8520 n         1 MOL     -0.361285
     77 C25         3.0950    4.5110    1.0580 c3        1 MOL      0.000344
     78 C26         1.9600    3.5880    1.4020 c         1 MOL      0.591074
     79 O14         1.9950    2.4280    0.9330 o         1 MOL     -0.656217
     80 C27         2.6300    5.2650   -0.1940 c3        1 MOL      0.150634
     81 C28         3.4690    6.4510   -0.4600 c3        1 MOL     -0.257456
     82 C29         3.1130    7.2100   -1.7190 c         1 MOL      0.719273
     83 N8          4.1020    7.8390   -2.2830 n         1 MOL     -0.800933
     84 O15         1.9650    7.3200   -2.1900 o         1 MOL     -0.597205
     85 H33         4.3410    3.0680    0.2010 hn        1 MOL      0.255652
     86 H34         3.1420    5.2620    1.8460 h1        1 MOL      0.031897
     87 H35         1.5860    5.5470   -0.0770 hc        1 MOL      0.001864
     88 H36         2.6830    4.5690   -1.0360 hc        1 MOL      0.001864
     89 H37         4.5320    6.2080   -0.3840 hc        1 MOL      0.065985
     90 H38         3.1680    7.1190    0.3480 hc        1 MOL      0.065985
     91 H39         4.9780    7.9550   -1.7890 hn        1 MOL      0.356290
     92 H40         3.9200    8.2670   -3.1770 hn        1 MOL      0.356290
     93 N9          0.9280    3.9800    2.1840 n         1 MOL     -0.520981
     94 C30        -0.2370    3.1240    2.5000 c3        1 MOL     -0.063784
     95 C31        -1.3780    3.4240    1.4380 c         1 MOL      0.605676
     96 O16        -1.8460    4.5220    1.4250 o         1 MOL     -0.567583
     97 C32        -0.7420    3.4280    3.9830 c3        1 MOL      0.088380
     98 C33        -2.2070    3.0030    4.2420 c3        1 MOL     -0.281937
     99 C34         0.0320    2.5710    5.0340 c3        1 MOL     -0.281937
    100 H41         0.7250    4.9440    2.3940 hn        1 MOL      0.305611
    101 H42         0.0070    2.0720    2.4910 h1        1 MOL      0.232142
    102 H43        -0.5240    4.4680    4.1910 hc        1 MOL      0.019139
    103 H44        -2.3790    3.0080    5.3200 hc        1 MOL      0.071087
    104 H45        -2.9050    3.6720    3.7550 hc        1 MOL      0.071087
    105 H46        -2.2550    1.9360    4.0340 hc        1 MOL      0.071087
    106 H47        -0.0130    2.9280    6.0670 hc        1 MOL      0.071087
    107 H48        -0.2250    1.5190    4.9450 hc        1 MOL      0.071087
    108 H49         1.0820    2.6410    4.7480 hc        1 MOL      0.071087
    109 N10        -1.7620    2.4660    0.5480 n         1 MOL     -0.252033
    110 C35        -2.8840    2.4370   -0.3680 c3        1 MOL     -0.047769
    111 C36        -4.1640    2.3070    0.4400 c         1 MOL      0.248264
    112 O17        -4.0790    1.7760    1.5550 o         1 MOL     -0.351296
    113 C37        -2.5490    1.1710   -1.2450 c3        1 MOL     -0.291259
    114 C38        -3.6730    0.9130   -2.2380 c         1 MOL      0.761531
    115 N11        -4.0030    1.8060   -3.1090 n         1 MOL     -0.825949
    116 O18        -4.4250   -0.0710   -2.2830 o         1 MOL     -0.560868
    117 H50        -1.3160    1.5650    0.6700 hn        1 MOL      0.208396
    118 H51        -2.8640    3.3670   -0.9450 h1        1 MOL      0.079035
    119 H52        -2.4290    0.2340   -0.7240 hc        1 MOL      0.127210
    120 H53        -1.6500    1.3640   -1.8290 hc        1 MOL      0.127210
    121 H54        -3.5960    2.7300   -3.0490 hn        1 MOL      0.381158
    122 H55        -4.7420    1.4810   -3.7160 hn        1 MOL      0.381158
    123 N12        -5.3500    2.6660   -0.1250 n         1 MOL     -0.088653
    124 C39        -6.6310    2.4090    0.4650 c3        1 MOL      0.008984
    125 C40        -6.8890    0.8980    0.7100 c         1 MOL      0.442173
    126 O19        -7.6390    0.5190    1.7020 o         1 MOL     -0.582684
    127 C41        -7.8180    3.0970   -0.1970 c3        1 MOL     -0.161577
    128 C42        -8.0250    2.5900   -1.6000 ca        1 MOL     -0.019159
    129 C43        -8.8270    1.4490   -1.8140 ca        1 MOL     -0.073220
    130 C44        -7.4360    3.2160   -2.7140 ca        1 MOL     -0.073220
    131 C45        -9.0920    0.9570   -3.1260 ca        1 MOL     -0.387548
    132 C46        -7.6680    2.7400   -4.0280 ca        1 MOL     -0.387548
    133 C47        -8.4120    1.5390   -4.2110 ca        1 MOL      0.458419
    134 O20        -8.5360    0.9860   -5.5030 oh        1 MOL     -0.577471
    135 H56        -5.3250    3.1180   -1.0230 hn        1 MOL      0.121150
    136 H57        -6.5350    2.8290    1.4640 h1        1 MOL      0.072853
    137 H58        -7.6280    4.1610   -0.2810 hc        1 MOL      0.065251
    138 H59        -8.6800    2.8150    0.4090 hc        1 MOL      0.065251
    139 H60        -9.3420    1.0030   -0.9700 ha        1 MOL      0.123534
    140 H61        -6.9180    4.1530   -2.6950 ha        1 MOL      0.123534
    141 H62        -9.7840    0.1320   -3.1810 ha        1 MOL      0.182865
    142 H63        -7.2890    3.2610   -4.8900 ha        1 MOL      0.182865
    143 H64        -9.1810    0.2740   -5.6130 ho        1 MOL      0.423625
    144 N13        -6.3090   -0.1300    0.0270 n         1 MOL      0.013804
    145 C48        -6.4040   -1.5980    0.3600 c3        1 MOL     -0.461365
    146 C49        -5.4360   -2.0000    1.3690 c         1 MOL      0.491185
    147 O21        -5.5880   -3.0760    1.9720 o         1 MOL     -0.550255
    148 C50        -6.4250   -2.4020   -0.8950 c3        1 MOL      0.141190
    149 C51        -7.5340   -2.0620   -1.8690 c3        1 MOL     -0.315836
    150 C52        -7.5500   -3.1510   -2.9700 c         1 MOL      0.692530
    151 O22        -6.9740   -2.9630   -4.0470 o         1 MOL     -0.729375
    152 O23        -8.0860   -4.2660   -2.6870 o         1 MOL     -0.729375
    153 H65        -5.8790    0.0870   -0.8660 hn        1 MOL      0.143335
    154 H66        -7.3770   -1.8380    0.7820 h1        1 MOL      0.188447
    155 H67        -6.4400   -3.4630   -0.6560 hc        1 MOL      0.050500
    156 H68        -5.4730   -2.3090   -1.4280 hc        1 MOL      0.050500
    157 H69        -7.3040   -1.0590   -2.2430 hc        1 MOL      0.067642
    158 H70        -8.4420   -2.1520   -1.2690 hc        1 MOL      0.067642
    159 N14        -4.4470   -1.1640    1.6690 n         1 MOL     -0.041884
    160 C53        -3.5290   -1.4680    2.8210 c3        1 MOL     -0.044474
    161 C54        -3.9070   -0.6080    4.0670 c         1 MOL      0.337410
    162 O24        -3.6230   -0.9290    5.1910 o         1 MOL     -0.549382
    163 C55        -2.1280   -0.9950    2.5520 c3        1 MOL      0.074394
    164 C56        -1.3800   -1.7930    1.4780 c3        1 MOL     -0.195234
    165 C57        -0.2590   -1.1110    0.7760 c         1 MOL      0.857958
    166 O25        -0.0420    0.0580    1.0080 o         1 MOL     -0.817079
    167 O26         0.4950   -1.8210    0.0530 o         1 MOL     -0.817079
    168 H71        -4.2960   -0.2870    1.1860 hn        1 MOL     -0.024708
    169 H72        -3.4110   -2.5190    3.0980 h1        1 MOL      0.097681
    170 H73        -1.4870   -1.0060    3.4460 hc        1 MOL      0.042543
    171 H74        -2.2190    0.0350    2.2070 hc        1 MOL      0.042543
    172 H75        -2.0420   -2.2750    0.7610 hc        1 MOL      0.031930
    173 H76        -0.9880   -2.6500    2.0100 hc        1 MOL      0.031930
    174 N15        -4.7660    0.3940    3.9460 n         1 MOL     -0.034081
    175 C58        -5.2960    1.2220    5.0420 c3        1 MOL     -0.124569
    176 H77        -4.8190    2.2020    5.0200 h1        1 MOL      0.055238
    177 H78        -6.3730    1.3410    4.9200 h1        1 MOL      0.055238
    178 H79        -5.0880    0.7390    5.9970 h1        1 MOL      0.055238
    179 H80        -5.0950    0.5480    3.0080 hn        1 MOL      0.095861
    180 Ca1         2.5260   -0.0390    0.0630 Ca        1 MOL      1.755782
    181 O27         2.3240   -0.1750    2.8090 oh        1 MOL     -0.892789
    182 H81         2.1290   -0.8930    3.4260 ho        1 MOL      0.422101
    183 H82         2.1030    0.6180    3.2870 ho        1 MOL      0.422101
    184 O28         4.9450    0.2700    1.1610 oh        1 MOL     -0.892789
    185 H83         4.9960    0.9410    1.8420 ho        1 MOL      0.422101
    186 H84         5.5100   -0.4350    1.4680 ho        1 MOL      0.422101
    187 O29         1.2030    0.7180   -2.3300 oh        1 MOL     -0.892789
    188 H85         1.5330    0.0140   -2.8910 ho        1 MOL      0.422101
    189 H86         1.7450    1.4750   -2.5580 ho        1 MOL      0.422101
@<TRIPOS>BOND
     1    1    2 1   
     2    1    4 1   
     3    1    5 1   
     4    1    6 1   
     5    2    3 2   
     6    2    7 1   
     7    7    8 1   
     8    7   15 1   
     9    8    9 1   
    10    8   11 1   
    11    8   16 1   
    12    9   10 2   
    13    9   19 1   
    14   11   12 1   
    15   11   17 1   
    16   11   18 1   
    17   12   13 1   
    18   12   14 1   
    19   19   20 1   
    20   19   27 1   
    21   20   21 1   
    22   20   23 1   
    23   20   28 1   
    24   21   22 2   
    25   21   38 1   
    26   23   24 1   
    27   23   25 1   
    28   23   29 1   
    29   24   26 1   
    30   24   30 1   
    31   24   31 1   
    32   25   32 1   
    33   25   33 1   
    34   25   34 1   
    35   26   35 1   
    36   26   36 1   
    37   26   37 1   
    38   38   39 1   
    39   38   46 1   
    40   39   40 1   
    41   39   42 1   
    42   39   47 1   
    43   40   41 2   
    44   40   50 1   
    45   42   43 1   
    46   42   48 1   
    47   42   49 1   
    48   43   44 1   
    49   43   45 1   
    50   50   51 1   
    51   50   54 1   
    52   51   52 1   
    53   51   55 1   
    54   51   56 1   
    55   52   53 2   
    56   52   57 1   
    57   57   58 1   
    58   57   65 1   
    59   58   59 1   
    60   58   61 1   
    61   58   66 1   
    62   59   60 2   
    63   59   69 1   
    64   61   62 1   
    65   61   67 1   
    66   61   68 1   
    67   62   63 1   
    68   62   64 1   
    69   69   70 1   
    70   69   73 1   
    71   70   71 1   
    72   70   74 1   
    73   70   75 1   
    74   71   72 2   
    75   71   76 1   
    76   76   77 1   
    77   76   85 1   
    78   77   78 1   
    79   77   80 1   
    80   77   86 1   
    81   78   79 2   
    82   78   93 1   
    83   80   81 1   
    84   80   87 1   
    85   80   88 1   
    86   81   82 1   
    87   81   89 1   
    88   81   90 1   
    89   82   83 1   
    90   82   84 2   
    91   83   91 1   
    92   83   92 1   
    93   93   94 1   
    94   93  100 1   
    95   94   95 1   
    96   94   97 1   
    97   94  101 1   
    98   95   96 2   
    99   95  109 1   
   100   97   98 1   
   101   97   99 1   
   102   97  102 1   
   103   98  103 1   
   104   98  104 1   
   105   98  105 1   
   106   99  106 1   
   107   99  107 1   
   108   99  108 1   
   109  109  110 1   
   110  109  117 1   
   111  110  111 1   
   112  110  113 1   
   113  110  118 1   
   114  111  112 2   
   115  111  123 1   
   116  113  114 1   
   117  113  119 1   
   118  113  120 1   
   119  114  115 1   
   120  114  116 2   
   121  115  121 1   
   122  115  122 1   
   123  123  124 1   
   124  123  135 1   
   125  124  125 1   
   126  124  127 1   
   127  124  136 1   
   128  125  126 2   
   129  125  144 1   
   130  127  128 1   
   131  127  137 1   
   132  127  138 1   
   133  128  129 ar  
   134  128  130 ar  
   135  129  131 ar  
   136  129  139 1   
   137  130  132 ar  
   138  130  140 1   
   139  131  133 ar  
   140  131  141 1   
   141  132  133 ar  
   142  132  142 1   
   143  133  134 1   
   144  134  143 1   
   145  144  145 1   
   146  144  153 1   
   147  145  146 1   
   148  145  148 1   
   149  145  154 1   
   150  146  147 2   
   151  146  159 1   
   152  148  149 1   
   153  148  155 1   
   154  148  156 1   
   155  149  150 1   
   156  149  157 1   
   157  149  158 1   
   158  150  151 1   
   159  150  152 1   
   160  159  160 1   
   161  159  168 1   
   162  160  161 1   
   163  160  163 1   
   164  160  169 1   
   165  161  162 2   
   166  161  174 1   
   167  163  164 1   
   168  163  170 1   
   169  163  171 1   
   170  164  165 1   
   171  164  172 1   
   172  164  173 1   
   173  165  166 1   
   174  165  167 1   
   175  174  175 1   
   176  174  179 1   
   177  175  176 1   
   178  175  177 1   
   179  175  178 1   
   180  181  182 1   
   181  181  183 1   
   182  184  185 1   
   183  184  186 1   
   184  187  188 1   
   185  187  189 1   
@<TRIPOS>SUBSTRUCTURE
     1 MOL         1 TEMP              0 ****  ****    0 ROOT
