@<TRIPOS>MOLECULE
MOL
  189   185     1     0     0
SMALL
resp


@<TRIPOS>ATOM
      1 C1         -0.6150    1.8710    6.1950 c3        1 MOL     -0.334013
      2 C2         -0.8750    1.5750    4.7200 c         1 MOL      0.748582
      3 O1          0.0450    1.3780    3.9330 o         1 MOL     -0.617702
      4 H1          0.4590    1.8820    6.3790 hc        1 MOL      0.081113
      5 H2         -1.0380    2.8430    6.4510 hc        1 MOL      0.081113
      6 H3         -1.0810    1.0980    6.8090 hc        1 MOL      0.081113
      7 N1         -2.1450    1.5050    4.3640 n         1 MOL     -0.644111
      8 C3         -2.6470    1.4340    2.9850 c3        1 MOL      0.107861
      9 C4         -2.8190    2.8250    2.4630 c         1 MOL      0.465388
     10 O2         -3.5240    3.6300    3.0190 o         1 MOL     -0.562444
     11 C5         -3.9080    0.5820    2.8520 c3        1 MOL      0.040669
     12 C6         -4.3280    0.7070    1.3620 c         1 MOL      0.580839
     13 O3         -5.4910    1.0580    1.0740 o         1 MOL     -0.632783
     14 O4         -3.5280    0.3830    0.4950 o         1 MOL     -0.632783
     15 H4         -2.8230    1.8040    5.0520 hn        1 MOL      0.334976
     16 H5         -1.9900    0.9840    2.2500 h1        1 MOL      0.006290
     17 H6         -4.6650    0.9480    3.5450 hc        1 MOL     -0.006218
     18 H7         -3.7720   -0.4720    3.0990 hc        1 MOL     -0.006218
     19 N2         -2.1640    3.1160    1.3450 n         1 MOL     -0.131980
     20 C7         -2.0110    4.4870    0.7260 c3        1 MOL     -0.130194
     21 C8         -3.0530    4.7040   -0.4050 c         1 MOL      0.605781
     22 O5         -3.4650    5.8640   -0.5650 o         1 MOL     -0.597338
     23 C9         -0.5720    4.5130    0.1520 c3        1 MOL     -0.089294
     24 C10         0.1190    5.9290   -0.0330 c3        1 MOL      0.146816
     25 C11         0.5050    6.6460    1.2690 c3        1 MOL     -0.100252
     26 C12         1.1110    8.1190    0.9590 c3        1 MOL      0.172677
     27 N3          0.6480    9.1070    1.9460 n4        1 MOL     -0.410756
     28 H8         -1.4750    2.4340    1.0650 hn        1 MOL      0.144022
     29 H9         -2.1780    5.2810    1.4490 h1        1 MOL      0.071995
     30 H10        -0.5170    3.8820   -0.7250 hc        1 MOL      0.049799
     31 H11         0.0190    3.8980    0.8250 hc        1 MOL      0.049799
     32 H12        -0.6330    6.5230   -0.5310 hc        1 MOL     -0.015536
     33 H13         0.9250    5.7260   -0.7340 hc        1 MOL     -0.015536
     34 H14         1.2970    6.0450    1.7150 hc        1 MOL      0.045628
     35 H15        -0.3780    6.8130    1.8950 hc        1 MOL      0.045628
     36 H16         0.8280    8.3570   -0.0640 hx        1 MOL      0.020022
     37 H17         2.1970    8.0720    1.0020 hx        1 MOL      0.020022
     38 H18         1.2210    9.9380    1.8370 hn        1 MOL      0.343554
     39 H19        -0.2980    9.3060    1.6860 hn        1 MOL      0.343554
     40 H20         0.7460    8.7990    2.9100 hn        1 MOL      0.343554
     41 N4         -3.4940    3.6440   -1.1360 n         1 MOL     -0.400459
     42 C13        -4.2000    3.7910   -2.4150 c3        1 MOL      0.141529
     43 C14        -5.5660    2.9720   -2.5870 c         1 MOL      0.496306
     44 O6         -5.9070    2.7010   -3.6910 o         1 MOL     -0.498119
     45 C15        -3.2220    3.5670   -3.5510 c3        1 MOL     -0.114883
     46 C16        -2.5000    2.1340   -3.4420 c         1 MOL      0.714408
     47 O7         -2.0660    1.6670   -4.4710 o         1 MOL     -0.677699
     48 O8         -2.4100    1.5670   -2.3460 o         1 MOL     -0.677699
     49 H21        -3.0670    2.7480   -0.9560 hn        1 MOL      0.162506
     50 H22        -4.5450    4.8280   -2.3770 h1        1 MOL      0.015136
     51 H23        -2.4650    4.3530   -3.5140 hc        1 MOL      0.014893
     52 H24        -3.7460    3.7060   -4.4950 hc        1 MOL      0.014893
     53 N5         -6.2270    2.6580   -1.4770 n         1 MOL     -0.427109
     54 C17        -7.6370    2.1730   -1.5000 c3        1 MOL     -0.101356
     55 C18        -7.9170    0.7320   -1.6510 c         1 MOL      0.572996
     56 O9         -9.0330    0.4260   -1.9960 o         1 MOL     -0.556253
     57 H25        -5.8580    2.8900   -0.5630 hn        1 MOL      0.303287
     58 H26        -8.2830    2.6750   -2.2040 h1        1 MOL      0.088067
     59 H27        -8.0720    2.5050   -0.5610 h1        1 MOL      0.088067
     60 N6         -6.8760   -0.1260   -1.2940 n         1 MOL     -0.361152
     61 C19        -7.0280   -1.5420   -1.4270 c3        1 MOL      0.106024
     62 C20        -6.8640   -2.3540   -0.1610 c         1 MOL      0.311985
     63 O10        -7.4070   -3.4600   -0.0390 o         1 MOL     -0.554616
     64 C21        -6.0880   -2.0740   -2.5180 c3        1 MOL     -0.117070
     65 C22        -4.6870   -1.5420   -2.2580 c         1 MOL      0.476566
     66 O11        -4.0530   -1.9420   -1.2150 o         1 MOL     -0.545112
     67 O12        -4.0400   -0.8900   -3.1220 o         1 MOL     -0.545112
     68 H28        -5.9560    0.2450   -1.0990 hn        1 MOL      0.298886
     69 H29        -8.0440   -1.7470   -1.7620 h1        1 MOL      0.073312
     70 H30        -6.4060   -1.7580   -3.5110 hc        1 MOL      0.049800
     71 H31        -6.0870   -3.1620   -2.4730 hc        1 MOL      0.049800
     72 N7         -6.2650   -1.7630    0.8180 n         1 MOL      0.034111
     73 C23        -6.2110   -2.4370    2.1160 c3        1 MOL     -0.124248
     74 C24        -5.0380   -3.4080    2.1990 c         1 MOL      0.407984
     75 O13        -5.0990   -4.2670    3.1050 o         1 MOL     -0.548697
     76 H32        -5.8660   -0.8360    0.7700 hn        1 MOL     -0.030402
     77 H33        -7.1890   -2.8780    2.3220 h1        1 MOL      0.101817
     78 H34        -6.2720   -1.6540    2.8770 h1        1 MOL      0.101817
     79 N8         -4.0440   -3.3410    1.2710 n         1 MOL      0.040148
     80 C25        -2.8680   -4.2460    1.0900 c3        1 MOL     -0.220722
     81 C26        -1.5610   -3.4740    1.0560 c         1 MOL      0.499415
     82 O14        -1.5450   -2.3770    0.5070 o         1 MOL     -0.567794
     83 C27        -2.9120   -5.2550   -0.0580 c3        1 MOL      0.487179
     84 C28        -4.0400   -6.2440   -0.0680 c3        1 MOL     -0.467551
     85 O15        -3.0850   -4.5910   -1.3110 oh        1 MOL     -0.647076
     86 H35        -4.0330   -2.5800    0.5960 hn        1 MOL     -0.029018
     87 H36        -2.8190   -4.8920    1.9600 h1        1 MOL      0.073941
     88 H37        -1.9840   -5.8230   -0.1170 h1        1 MOL     -0.005359
     89 H38        -3.5340   -3.7580   -1.1620 ho        1 MOL      0.421500
     90 H39        -4.1070   -6.7760    0.8800 hc        1 MOL      0.120603
     91 H40        -5.0000   -5.7430   -0.2270 hc        1 MOL      0.120603
     92 H41        -3.8540   -6.9720   -0.8650 hc        1 MOL      0.120603
     93 N9         -0.4070   -4.0370    1.5210 n         1 MOL     -0.439494
     94 C29         0.9060   -3.4080    1.5590 c3        1 MOL      0.277503
     95 C30         1.8190   -3.9910    0.5130 c         1 MOL      0.388385
     96 O16         1.8880   -5.1960    0.4020 o         1 MOL     -0.563501
     97 C31         1.4490   -3.4960    2.9930 c3        1 MOL     -0.134142
     98 C32         0.9750   -2.2010    3.7260 c3        1 MOL      0.165015
     99 C33         2.9840   -3.6630    3.1320 c3        1 MOL     -0.195115
    100 C34        -0.5350   -2.0150    3.9730 c3        1 MOL     -0.202601
    101 H42        -0.4640   -4.9130    2.0270 hn        1 MOL      0.270216
    102 H43         0.8100   -2.3520    1.3260 h1        1 MOL     -0.038382
    103 H44         0.9820   -4.3300    3.5370 hc        1 MOL      0.055421
    104 H45         1.5350   -1.3670    3.3030 hc        1 MOL     -0.007348
    105 H46         1.3540   -2.1840    4.7520 hc        1 MOL     -0.007348
    106 H47         3.4680   -2.9960    2.4220 hc        1 MOL      0.039867
    107 H48         3.2750   -3.4610    4.1590 hc        1 MOL      0.039867
    108 H49         3.3240   -4.6780    2.9200 hc        1 MOL      0.039867
    109 H50        -0.8680   -3.0340    4.1750 hc        1 MOL      0.051463
    110 H51        -0.6970   -1.2880    4.7690 hc        1 MOL      0.051463
    111 H52        -0.9700   -1.6790    3.0340 hc        1 MOL      0.051463
    112 N10         2.4590   -3.1550   -0.2560 n         1 MOL      0.005630
    113 C35         3.4950   -3.3860   -1.2980 c3        1 MOL      0.000309
    114 C36         4.8960   -2.9700   -0.8410 c         1 MOL      0.236893
    115 O17         4.9900   -2.3670    0.2530 o         1 MOL     -0.247079
    116 C37         3.1530   -2.6010   -2.5580 c3        1 MOL      0.324670
    117 C38         1.9320   -3.2220   -3.2240 c3        1 MOL     -0.366659
    118 O18         2.9650   -1.2360   -2.2780 oh        1 MOL     -0.588793
    119 H53         2.3260   -2.1910    0.0130 hn        1 MOL      0.000242
    120 H54         3.5240   -4.4380   -1.5970 h1        1 MOL      0.060863
    121 H55         3.9880   -2.7290   -3.2500 h1        1 MOL     -0.014016
    122 H56         2.1250   -1.1940   -1.8180 ho        1 MOL      0.367735
    123 H57         2.0820   -4.1570   -3.7660 hc        1 MOL      0.095921
    124 H58         1.2150   -3.4180   -2.4290 hc        1 MOL      0.095921
    125 H59         1.3750   -2.5360   -3.8560 hc        1 MOL      0.095921
    126 N11         6.0540   -3.2420   -1.5540 n         1 MOL     -0.180497
    127 C39         7.3650   -2.8290   -1.1440 c3        1 MOL     -0.321720
    128 C40         7.5200   -1.3250   -0.6790 c         1 MOL      0.427687
    129 O19         7.9310   -1.0540    0.4480 o         1 MOL     -0.472666
    130 C41         8.4290   -3.0540   -2.2210 c3        1 MOL      0.356499
    131 C42         8.7540   -4.5340   -2.4790 c3        1 MOL     -0.335922
    132 O20         7.8830   -2.5570   -3.4680 oh        1 MOL     -0.676378
    133 H60         5.9330   -3.8360   -2.3590 hn        1 MOL      0.224799
    134 H61         7.6770   -3.4370   -0.2860 h1        1 MOL      0.154653
    135 H62         9.2870   -2.4110   -2.0350 h1        1 MOL      0.090959
    136 H63         7.2220   -3.1360   -3.8660 ho        1 MOL      0.415939
    137 H64         9.4290   -4.8490   -1.6750 hc        1 MOL      0.098526
    138 H65         7.8180   -5.0910   -2.4820 hc        1 MOL      0.098526
    139 H66         9.2360   -4.7470   -3.4270 hc        1 MOL      0.098526
    140 N12         7.0040   -0.3610   -1.4790 n         1 MOL     -0.159548
    141 C43         6.9860    1.0810   -1.0890 c3        1 MOL     -0.189911
    142 C44         6.1960    1.3090    0.2240 c         1 MOL      0.450976
    143 O21         6.6710    1.9700    1.1630 o         1 MOL     -0.511909
    144 C45         6.3020    1.8590   -2.2670 c3        1 MOL     -0.012274
    145 C46         6.4520    3.3970   -2.1960 c3        1 MOL     -0.050745
    146 C47         7.7040    3.9630   -1.4130 c3        1 MOL      0.106597
    147 C48         7.8310    5.4230   -1.7090 c3        1 MOL     -0.002345
    148 N13         8.9120    6.0710   -0.9000 n4        1 MOL     -0.190913
    149 H67         6.5760   -0.6470   -2.3440 hn        1 MOL      0.196705
    150 H68         8.0340    1.3400   -0.9670 h1        1 MOL      0.109988
    151 H69         5.2380    1.6240   -2.2700 hc        1 MOL      0.051209
    152 H70         6.8070    1.5960   -3.1930 hc        1 MOL      0.051209
    153 H71         5.6060    3.8110   -1.6490 hc        1 MOL      0.031358
    154 H72         6.3810    3.7700   -3.2160 hc        1 MOL      0.031358
    155 H73         8.6470    3.5220   -1.7530 hc        1 MOL      0.001377
    156 H74         7.5090    3.7210   -0.3660 hc        1 MOL      0.001377
    157 H75         6.8930    5.8680   -1.3830 hx        1 MOL      0.068809
    158 H76         7.9500    5.6910   -2.7650 hx        1 MOL      0.068809
    159 H77         9.0310    5.9810    0.1030 hn        1 MOL      0.261419
    160 H78         9.8310    5.7750   -1.1920 hn        1 MOL      0.261419
    161 H79         8.8730    7.0710   -1.0160 hn        1 MOL      0.261419
    162 N14         5.0150    0.6920    0.3780 n         1 MOL     -0.237098
    163 C49         4.2050    0.7330    1.6630 c3        1 MOL     -0.177528
    164 C50         4.8880   -0.0010    2.8320 c         1 MOL      0.439721
    165 O22         4.7720    0.4970    3.9340 o         1 MOL     -0.544518
    166 C51         2.7770    0.3240    1.4960 c3        1 MOL      0.107266
    167 C52         1.9140    1.1460    0.5240 c3        1 MOL     -0.061543
    168 C53         0.6890    0.4330    0.0900 c         1 MOL      0.794084
    169 O23        -0.3790    1.0670    0.1490 o         1 MOL     -0.690945
    170 O24         0.6880   -0.5850   -0.6030 o         1 MOL     -0.690945
    171 H80         4.8820   -0.0800   -0.2700 hn        1 MOL      0.194606
    172 H81         4.1720    1.7890    1.9320 h1        1 MOL      0.124796
    173 H82         2.2840    0.4980    2.4590 hc        1 MOL      0.033891
    174 H83         2.6920   -0.7170    1.1950 hc        1 MOL      0.033891
    175 H84         2.4570    1.3330   -0.4000 hc        1 MOL     -0.007855
    176 H85         1.7280    2.1220    0.9510 hc        1 MOL     -0.007855
    177 N15         5.5460   -1.1550    2.5670 n         1 MOL      0.057874
    178 C54         6.3460   -1.8970    3.5140 c3        1 MOL     -0.399276
    179 H86         6.0580   -1.6210    4.5280 h1        1 MOL      0.126279
    180 H87         6.1850   -2.9650    3.3690 h1        1 MOL      0.126279
    181 H88         7.4000   -1.6640    3.3610 h1        1 MOL      0.126279
    182 H89         5.7500   -1.3620    1.5950 hn        1 MOL      0.080382
    183 Ca1        -1.8250   -0.5680   -1.2280 Ca        1 MOL      1.678635
    184 O25        -0.4390   -0.2450   -3.4390 oh        1 MOL     -0.863161
    185 H90        -0.8820    0.5030   -3.8350 ho        1 MOL      0.400029
    186 H91        -0.1560   -0.7810   -4.1900 ho        1 MOL      0.400029
    187 O26        -1.4920   -2.9210   -2.6120 oh        1 MOL     -0.863161
    188 H92        -1.8280   -3.7140   -2.1830 ho        1 MOL      0.400029
    189 H93        -1.3390   -3.1820   -3.5170 ho        1 MOL      0.400029
@<TRIPOS>BOND
     1    1    2 1   
     2    1    4 1   
     3    1    5 1   
     4    1    6 1   
     5    2    3 2   
     6    2    7 1   
     7    7    8 1   
     8    7   15 1   
     9    8    9 1   
    10    8   11 1   
    11    8   16 1   
    12    9   10 2   
    13    9   19 1   
    14   11   12 1   
    15   11   17 1   
    16   11   18 1   
    17   12   13 1   
    18   12   14 1   
    19   19   20 1   
    20   19   28 1   
    21   20   21 1   
    22   20   23 1   
    23   20   29 1   
    24   21   22 2   
    25   21   41 1   
    26   23   24 1   
    27   23   30 1   
    28   23   31 1   
    29   24   25 1   
    30   24   32 1   
    31   24   33 1   
    32   25   26 1   
    33   25   34 1   
    34   25   35 1   
    35   26   27 1   
    36   26   36 1   
    37   26   37 1   
    38   27   38 1   
    39   27   39 1   
    40   27   40 1   
    41   41   42 1   
    42   41   49 1   
    43   42   43 1   
    44   42   45 1   
    45   42   50 1   
    46   43   44 2   
    47   43   53 1   
    48   45   46 1   
    49   45   51 1   
    50   45   52 1   
    51   46   47 1   
    52   46   48 1   
    53   53   54 1   
    54   53   57 1   
    55   54   55 1   
    56   54   58 1   
    57   54   59 1   
    58   55   56 2   
    59   55   60 1   
    60   60   61 1   
    61   60   68 1   
    62   61   62 1   
    63   61   64 1   
    64   61   69 1   
    65   62   63 2   
    66   62   72 1   
    67   64   65 1   
    68   64   70 1   
    69   64   71 1   
    70   65   66 1   
    71   65   67 1   
    72   72   73 1   
    73   72   76 1   
    74   73   74 1   
    75   73   77 1   
    76   73   78 1   
    77   74   75 2   
    78   74   79 1   
    79   79   80 1   
    80   79   86 1   
    81   80   81 1   
    82   80   83 1   
    83   80   87 1   
    84   81   82 2   
    85   81   93 1   
    86   83   84 1   
    87   83   85 1   
    88   83   88 1   
    89   84   90 1   
    90   84   91 1   
    91   84   92 1   
    92   85   89 1   
    93   93   94 1   
    94   93  101 1   
    95   94   95 1   
    96   94   97 1   
    97   94  102 1   
    98   95   96 2   
    99   95  112 1   
   100   97   98 1   
   101   97   99 1   
   102   97  103 1   
   103   98  100 1   
   104   98  104 1   
   105   98  105 1   
   106   99  106 1   
   107   99  107 1   
   108   99  108 1   
   109  100  109 1   
   110  100  110 1   
   111  100  111 1   
   112  112  113 1   
   113  112  119 1   
   114  113  114 1   
   115  113  116 1   
   116  113  120 1   
   117  114  115 2   
   118  114  126 1   
   119  116  117 1   
   120  116  118 1   
   121  116  121 1   
   122  117  123 1   
   123  117  124 1   
   124  117  125 1   
   125  118  122 1   
   126  126  127 1   
   127  126  133 1   
   128  127  128 1   
   129  127  130 1   
   130  127  134 1   
   131  128  129 2   
   132  128  140 1   
   133  130  131 1   
   134  130  132 1   
   135  130  135 1   
   136  131  137 1   
   137  131  138 1   
   138  131  139 1   
   139  132  136 1   
   140  140  141 1   
   141  140  149 1   
   142  141  142 1   
   143  141  144 1   
   144  141  150 1   
   145  142  143 2   
   146  142  162 1   
   147  144  145 1   
   148  144  151 1   
   149  144  152 1   
   150  145  146 1   
   151  145  153 1   
   152  145  154 1   
   153  146  147 1   
   154  146  155 1   
   155  146  156 1   
   156  147  148 1   
   157  147  157 1   
   158  147  158 1   
   159  148  159 1   
   160  148  160 1   
   161  148  161 1   
   162  162  163 1   
   163  162  171 1   
   164  163  164 1   
   165  163  166 1   
   166  163  172 1   
   167  164  165 2   
   168  164  177 1   
   169  166  167 1   
   170  166  173 1   
   171  166  174 1   
   172  167  168 1   
   173  167  175 1   
   174  167  176 1   
   175  168  169 1   
   176  168  170 1   
   177  177  178 1   
   178  177  182 1   
   179  178  179 1   
   180  178  180 1   
   181  178  181 1   
   182  184  185 1   
   183  184  186 1   
   184  187  188 1   
   185  187  189 1   
@<TRIPOS>SUBSTRUCTURE
     1 MOL         1 TEMP              0 ****  ****    0 ROOT
