@<TRIPOS>MOLECULE
MOL
  175   173     1     0     0
SMALL
resp


@<TRIPOS>ATOM
      1 C1          0.7960    4.4820    5.0780 c3        1 MOL     -0.306944
      2 C2          0.1620    4.5740    3.7440 c         1 MOL      0.748839
      3 O1          0.8070    4.8960    2.7640 o         1 MOL     -0.555126
      4 H1          0.1260    4.9010    5.8280 hc        1 MOL      0.066746
      5 H2          0.9970    3.4370    5.3150 hc        1 MOL      0.066746
      6 H3          1.7320    5.0410    5.0750 hc        1 MOL      0.066746
      7 N1         -1.1340    4.2620    3.7430 n         1 MOL     -0.648679
      8 C3         -1.8680    3.9080    2.5520 c3        1 MOL      0.144503
      9 C4         -2.1890    5.0420    1.5560 c         1 MOL      0.560922
     10 O2         -2.7330    6.1180    1.9420 o         1 MOL     -0.582339
     11 C5         -3.1720    3.1350    2.8450 c3        1 MOL     -0.234572
     12 C6         -3.9500    2.5780    1.7320 c         1 MOL      0.726690
     13 O3         -3.4510    2.0960    0.6390 o         1 MOL     -0.662823
     14 O4         -5.2180    2.4240    1.9110 o         1 MOL     -0.662823
     15 H4         -1.5610    3.9930    4.6190 hn        1 MOL      0.339589
     16 H5         -1.2200    3.2550    1.9650 h1        1 MOL      0.039465
     17 H6         -3.7410    3.7560    3.5400 hc        1 MOL      0.053996
     18 H7         -2.9320    2.3480    3.5460 hc        1 MOL      0.053996
     19 N2         -2.0960    4.7420    0.2540 n         1 MOL     -0.496253
     20 C7         -2.5500    5.5860   -0.8540 c3        1 MOL      0.357700
     21 C8         -3.6930    5.0780   -1.7040 c         1 MOL      0.346303
     22 O5         -4.2870    5.8980   -2.4700 o         1 MOL     -0.562216
     23 C9         -1.2880    5.8060   -1.6620 c3        1 MOL     -0.227267
     24 H8         -1.8040    3.7950    0.0510 hn        1 MOL      0.267125
     25 H9         -2.7960    6.5510   -0.3990 h1        1 MOL      0.001465
     26 H10        -0.3700    5.9960   -1.1050 hc        1 MOL      0.052604
     27 H11        -1.0560    4.8800   -2.1820 hc        1 MOL      0.052604
     28 H12        -1.4550    6.6160   -2.3770 hc        1 MOL      0.052604
     29 N3         -4.0260    3.7580   -1.6430 n         1 MOL     -0.222165
     30 C10        -4.8530    3.1300   -2.6820 c3        1 MOL      0.010471
     31 C11        -6.0280    2.2980   -2.1070 c         1 MOL      0.296897
     32 O6         -6.8330    1.8260   -2.9290 o         1 MOL     -0.565381
     33 C12        -4.0890    2.3810   -3.7180 c3        1 MOL     -0.037926
     34 C13        -3.2520    1.2540   -3.1150 c         1 MOL      0.597846
     35 O7         -2.2130    0.8850   -3.7310 o         1 MOL     -0.675071
     36 O8         -3.6940    0.6270   -2.1260 o         1 MOL     -0.675071
     37 H13        -3.6500    3.2270   -0.8670 hn        1 MOL      0.158540
     38 H14        -5.2650    3.9510   -3.2810 h1        1 MOL      0.097028
     39 H15        -3.3540    3.0940   -4.0890 hc        1 MOL      0.018223
     40 H16        -4.7010    2.1170   -4.5810 hc        1 MOL      0.018223
     41 N4         -6.0890    1.9840   -0.8410 n         1 MOL     -0.051693
     42 C14        -7.1820    1.2210   -0.2850 c3        1 MOL     -0.206282
     43 C15        -7.3010   -0.2010   -0.6870 c         1 MOL      0.538366
     44 O9         -8.3520   -0.7180   -0.3470 o         1 MOL     -0.611109
     45 H17        -5.3800    2.3490   -0.2090 hn        1 MOL      0.106054
     46 H18        -8.1240    1.7340   -0.4870 h1        1 MOL      0.099250
     47 H19        -6.9860    1.1310    0.7840 h1        1 MOL      0.099250
     48 N5         -6.3090   -0.7720   -1.3480 n         1 MOL     -0.220212
     49 C16        -6.5260   -2.0840   -1.9030 c3        1 MOL     -0.088885
     50 C17        -6.6860   -3.2640   -0.8580 c         1 MOL      0.522572
     51 O10        -7.3300   -4.2050   -1.2530 o         1 MOL     -0.548032
     52 C18        -5.3300   -2.4830   -2.8710 c3        1 MOL     -0.056998
     53 C19        -3.9400   -2.4640   -2.2700 c         1 MOL      0.381675
     54 N6         -2.9230   -2.7480   -2.9710 n         1 MOL     -0.421741
     55 O11        -3.6460   -2.0670   -1.1770 o         1 MOL     -0.516194
     56 H20        -5.6390   -0.1350   -1.7430 hn        1 MOL      0.311271
     57 H21        -7.3940   -2.0210   -2.5580 h1        1 MOL      0.084821
     58 H22        -5.3610   -1.7800   -3.6960 hc        1 MOL      0.049012
     59 H23        -5.5910   -3.4220   -3.3660 hc        1 MOL      0.049012
     60 H24        -3.1160   -2.9850   -3.9430 hn        1 MOL      0.251373
     61 H25        -1.9380   -2.6100   -2.7920 hn        1 MOL      0.251373
     62 N7         -6.1600   -3.0490    0.3870 n         1 MOL     -0.181164
     63 C20        -6.1400   -3.9190    1.6130 c3        1 MOL     -0.200332
     64 C21        -4.7730   -4.6900    1.8350 c         1 MOL      0.539674
     65 O12        -4.7310   -5.6920    2.5570 o         1 MOL     -0.585544
     66 H26        -5.7320   -2.1500    0.5020 hn        1 MOL      0.149155
     67 H27        -6.8720   -4.6900    1.3550 h1        1 MOL      0.102149
     68 H28        -6.5880   -3.4060    2.4630 h1        1 MOL      0.102149
     69 N8         -3.7020   -4.1580    1.2830 n         1 MOL     -0.169610
     70 C22        -2.2950   -4.6620    1.4930 c3        1 MOL     -0.245753
     71 C23        -1.3790   -3.4390    1.8380 c         1 MOL      0.660234
     72 O13        -1.4950   -2.4850    1.0850 o         1 MOL     -0.661403
     73 C24        -1.6760   -5.4500    0.3590 c3        1 MOL      0.752735
     74 C25        -2.1650   -6.9350    0.3660 c3        1 MOL     -0.337672
     75 O14        -1.8960   -4.7660   -0.8410 oh        1 MOL     -0.706038
     76 H29        -3.7650   -3.3110    0.7320 hn        1 MOL      0.130976
     77 H30        -2.1220   -5.3680    2.3110 h1        1 MOL      0.056790
     78 H31        -0.6040   -5.5930    0.4370 h1        1 MOL     -0.069249
     79 H32        -1.4660   -3.9070   -0.8700 ho        1 MOL      0.352710
     80 H33        -3.1580   -7.0280    0.7880 hc        1 MOL      0.068328
     81 H34        -2.1460   -7.3530   -0.6400 hc        1 MOL      0.068328
     82 H35        -1.4390   -7.4860    0.9660 hc        1 MOL      0.068328
     83 N9         -0.2840   -3.6000    2.5520 n         1 MOL     -0.641156
     84 C26         0.9700   -2.7530    2.3590 c3        1 MOL      0.091736
     85 C27         1.7150   -3.2270    1.1130 c         1 MOL      0.537704
     86 O15         2.0480   -4.4110    1.0260 o         1 MOL     -0.589129
     87 C28         1.8070   -2.7140    3.6930 c3        1 MOL      0.078986
     88 C29         1.0960   -1.6790    4.5730 c3        1 MOL      0.001473
     89 C30         3.2870   -2.4070    3.5370 c3        1 MOL     -0.260042
     90 C31         1.5170   -1.5990    6.1190 c3        1 MOL     -0.049823
     91 H36        -0.0890   -4.5300    2.8900 hn        1 MOL      0.300464
     92 H37         0.6940   -1.7240    2.1580 h1        1 MOL      0.122098
     93 H38         1.8910   -3.6750    4.2020 hc        1 MOL      0.015165
     94 H39         0.0150   -1.7210    4.4580 hc        1 MOL     -0.003099
     95 H40         1.3540   -0.7120    4.1370 hc        1 MOL     -0.003099
     96 H41         3.8010   -3.1510    2.9370 hc        1 MOL      0.061327
     97 H42         3.4290   -1.4520    3.0390 hc        1 MOL      0.061327
     98 H43         3.7220   -2.2740    4.5270 hc        1 MOL      0.061327
     99 H44         0.8870   -0.8490    6.5950 hc        1 MOL      0.009604
    100 H45         1.2570   -2.5310    6.6160 hc        1 MOL      0.009604
    101 H46         2.5390   -1.3360    6.3790 hc        1 MOL      0.009604
    102 N10         1.9360   -2.2480    0.2240 n         1 MOL     -0.190980
    103 C32         2.7050   -2.2650   -1.0410 c3        1 MOL     -0.044959
    104 C33         4.1340   -1.7580   -0.6230 c         1 MOL      0.551595
    105 O16         4.3030   -1.1160    0.4160 o         1 MOL     -0.458602
    106 C34         1.9930   -1.4440   -2.0370 c3        1 MOL     -0.343108
    107 C35         0.4450   -1.7400   -2.1080 c         1 MOL      0.790080
    108 O17        -0.3440   -0.8510   -1.7530 o         1 MOL     -0.663735
    109 O18         0.0180   -2.7910   -2.6440 o         1 MOL     -0.663735
    110 H47         1.5620   -1.3400    0.4740 hn        1 MOL      0.125552
    111 H48         2.7270   -3.2900   -1.4130 h1        1 MOL      0.073456
    112 H49         2.4540   -1.5450   -3.0250 hc        1 MOL      0.109936
    113 H50         2.1490   -0.4030   -1.7630 hc        1 MOL      0.109936
    114 N11         5.0880   -2.0420   -1.4950 n         1 MOL     -0.635409
    115 C36         6.4530   -1.5770   -1.2300 c3        1 MOL      0.275305
    116 C37         6.6070   -0.0290   -1.3670 c         1 MOL      0.233766
    117 O19         7.3740    0.6210   -0.6700 o         1 MOL     -0.439740
    118 C38         7.4310   -2.3990   -2.1040 c3        1 MOL     -0.221573
    119 C39         8.8550   -1.9710   -1.7430 ca        1 MOL      0.100291
    120 C40         9.5350   -2.2890   -0.5780 ca        1 MOL     -0.157544
    121 C41         9.5500   -1.2760   -2.7430 ca        1 MOL     -0.157544
    122 C42        10.8390   -1.8200   -0.3530 ca        1 MOL     -0.148761
    123 C43        10.8800   -0.8650   -2.5230 ca        1 MOL     -0.148761
    124 C44        11.5310   -1.0890   -1.3160 ca        1 MOL     -0.044653
    125 H51         4.8660   -2.4840   -2.3730 hn        1 MOL      0.344061
    126 H52         6.7000   -1.8260   -0.2040 h1        1 MOL      0.097199
    127 H53         7.3040   -2.3180   -3.1790 hc        1 MOL      0.081932
    128 H54         7.3870   -3.4770   -1.9070 hc        1 MOL      0.081932
    129 H55         9.0290   -2.7530    0.2540 ha        1 MOL      0.113916
    130 H56         9.1360   -1.1720   -3.7280 ha        1 MOL      0.113916
    131 H57        11.2680   -1.9490    0.6280 ha        1 MOL      0.115430
    132 H58        11.3640   -0.3300   -3.3220 ha        1 MOL      0.115430
    133 H59        12.5660   -0.8070   -1.1740 ha        1 MOL      0.085991
    134 N12         5.7660    0.6810   -2.1430 n         1 MOL      0.118249
    135 C45         5.8940    2.1780   -2.1900 c3        1 MOL     -0.175421
    136 C46         5.4560    2.8770   -0.8890 c         1 MOL      0.302500
    137 O20         5.8460    4.0040   -0.5440 o         1 MOL     -0.489551
    138 C47         4.8740    2.5190   -3.2520 c3        1 MOL      0.161948
    139 C48         4.8520    1.3970   -4.2850 c3        1 MOL     -0.068063
    140 C49         5.0290    0.2420   -3.3750 c3        1 MOL     -0.173978
    141 H60         6.8850    2.5650   -2.4300 h1        1 MOL      0.104061
    142 H61         3.8980    2.5640   -2.7730 hc        1 MOL     -0.008016
    143 H62         5.0430    3.4290   -3.8250 hc        1 MOL     -0.008016
    144 H63         3.9020    1.4450   -4.8240 hc        1 MOL      0.046568
    145 H64         5.6870    1.6120   -4.9510 hc        1 MOL      0.046568
    146 H65         4.0830   -0.1620   -3.0170 h1        1 MOL      0.056948
    147 H66         5.5970   -0.6080   -3.7480 h1        1 MOL      0.056948
    148 N13         4.6940    2.1200   -0.0800 n         1 MOL     -0.004313
    149 C50         4.1760    2.4950    1.2500 c3        1 MOL     -0.253849
    150 C51         5.1830    2.1260    2.3410 c         1 MOL      0.563742
    151 O21         5.4460    2.9080    3.2930 o         1 MOL     -0.571589
    152 C52         2.7870    1.8470    1.5290 c3        1 MOL      0.126496
    153 C53         1.9590    1.9610    0.2030 c3        1 MOL     -0.163949
    154 C54         0.5050    1.4810    0.3580 c         1 MOL      0.621822
    155 O22        -0.4120    2.1270   -0.1220 o         1 MOL     -0.698957
    156 O23         0.3040    0.3330    0.7420 o         1 MOL     -0.698957
    157 H67         4.4000    1.2050   -0.4020 hn        1 MOL      0.090738
    158 H68         4.0680    3.5760    1.2650 h1        1 MOL      0.133040
    159 H69         2.3950    2.4570    2.3380 hc        1 MOL     -0.006731
    160 H70         2.8870    0.8190    1.8900 hc        1 MOL     -0.006731
    161 H71         2.4590    1.3420   -0.5430 hc        1 MOL      0.082082
    162 H72         1.9170    3.0240   -0.0240 hc        1 MOL      0.082082
    163 N14         5.7290    0.9070    2.2700 n         1 MOL     -0.135933
    164 C55         6.7420    0.4320    3.1520 c3        1 MOL     -0.318891
    165 H73         6.4990    0.7260    4.1730 h1        1 MOL      0.110141
    166 H74         6.7990   -0.6540    3.0900 h1        1 MOL      0.110141
    167 H75         7.7020    0.8640    2.8690 h1        1 MOL      0.110141
    168 H76         5.6080    0.4060    1.4010 hn        1 MOL      0.136886
    169 Ca1        -2.2040   -0.0770   -0.2480 Ca        1 MOL      1.736909
    170 O24        -4.6220   -0.4150    1.2230 oh        1 MOL     -0.747437
    171 H77        -4.6540    0.5120    1.4520 ho        1 MOL      0.366557
    172 H78        -4.9390   -0.8710    2.0010 ho        1 MOL      0.366557
    173 O25        -1.7770    0.1860    2.4050 oh        1 MOL     -0.747437
    174 H79        -0.8350    0.2950    2.2420 ho        1 MOL      0.366557
    175 H80        -1.8520    0.1920    3.3590 ho        1 MOL      0.366557
@<TRIPOS>BOND
     1    1    2 1   
     2    1    4 1   
     3    1    5 1   
     4    1    6 1   
     5    2    3 2   
     6    2    7 1   
     7    7    8 1   
     8    7   15 1   
     9    8    9 1   
    10    8   11 1   
    11    8   16 1   
    12    9   10 2   
    13    9   19 1   
    14   11   12 1   
    15   11   17 1   
    16   11   18 1   
    17   12   13 1   
    18   12   14 1   
    19   19   20 1   
    20   19   24 1   
    21   20   21 1   
    22   20   23 1   
    23   20   25 1   
    24   21   22 2   
    25   21   29 1   
    26   23   26 1   
    27   23   27 1   
    28   23   28 1   
    29   29   30 1   
    30   29   37 1   
    31   30   31 1   
    32   30   33 1   
    33   30   38 1   
    34   31   32 2   
    35   31   41 1   
    36   33   34 1   
    37   33   39 1   
    38   33   40 1   
    39   34   35 1   
    40   34   36 1   
    41   41   42 1   
    42   41   45 1   
    43   42   43 1   
    44   42   46 1   
    45   42   47 1   
    46   43   44 2   
    47   43   48 1   
    48   48   49 1   
    49   48   56 1   
    50   49   50 1   
    51   49   52 1   
    52   49   57 1   
    53   50   51 2   
    54   50   62 1   
    55   52   53 1   
    56   52   58 1   
    57   52   59 1   
    58   53   54 1   
    59   53   55 2   
    60   54   60 1   
    61   54   61 1   
    62   62   63 1   
    63   62   66 1   
    64   63   64 1   
    65   63   67 1   
    66   63   68 1   
    67   64   65 2   
    68   64   69 1   
    69   69   70 1   
    70   69   76 1   
    71   70   71 1   
    72   70   73 1   
    73   70   77 1   
    74   71   72 2   
    75   71   83 1   
    76   73   74 1   
    77   73   75 1   
    78   73   78 1   
    79   74   80 1   
    80   74   81 1   
    81   74   82 1   
    82   75   79 1   
    83   83   84 1   
    84   83   91 1   
    85   84   85 1   
    86   84   87 1   
    87   84   92 1   
    88   85   86 2   
    89   85  102 1   
    90   87   88 1   
    91   87   89 1   
    92   87   93 1   
    93   88   90 1   
    94   88   94 1   
    95   88   95 1   
    96   89   96 1   
    97   89   97 1   
    98   89   98 1   
    99   90   99 1   
   100   90  100 1   
   101   90  101 1   
   102  102  103 1   
   103  102  110 1   
   104  103  104 1   
   105  103  106 1   
   106  103  111 1   
   107  104  105 2   
   108  104  114 1   
   109  106  107 1   
   110  106  112 1   
   111  106  113 1   
   112  107  108 1   
   113  107  109 1   
   114  114  115 1   
   115  114  125 1   
   116  115  116 1   
   117  115  118 1   
   118  115  126 1   
   119  116  117 2   
   120  116  134 1   
   121  118  119 1   
   122  118  127 1   
   123  118  128 1   
   124  119  120 ar  
   125  119  121 ar  
   126  120  122 ar  
   127  120  129 1   
   128  121  123 ar  
   129  121  130 1   
   130  122  124 ar  
   131  122  131 1   
   132  123  124 ar  
   133  123  132 1   
   134  124  133 1   
   135  134  135 1   
   136  134  140 1   
   137  135  136 1   
   138  135  138 1   
   139  135  141 1   
   140  136  137 2   
   141  136  148 1   
   142  138  139 1   
   143  138  142 1   
   144  138  143 1   
   145  139  140 1   
   146  139  144 1   
   147  139  145 1   
   148  140  146 1   
   149  140  147 1   
   150  148  149 1   
   151  148  157 1   
   152  149  150 1   
   153  149  152 1   
   154  149  158 1   
   155  150  151 2   
   156  150  163 1   
   157  152  153 1   
   158  152  159 1   
   159  152  160 1   
   160  153  154 1   
   161  153  161 1   
   162  153  162 1   
   163  154  155 1   
   164  154  156 1   
   165  163  164 1   
   166  163  168 1   
   167  164  165 1   
   168  164  166 1   
   169  164  167 1   
   170  170  171 1   
   171  170  172 1   
   172  173  174 1   
   173  173  175 1   
@<TRIPOS>SUBSTRUCTURE
     1 MOL         1 TEMP              0 ****  ****    0 ROOT
