@<TRIPOS>MOLECULE
MOL
  186   183     1     0     0
SMALL
resp


@<TRIPOS>ATOM
      1 C1          0.4270   -2.6550    6.1160 c3        1 MOL     -0.343264
      2 C2          0.8490   -2.6210    4.5850 c         1 MOL      0.671799
      3 O1          0.0450   -3.1310    3.7890 o         1 MOL     -0.506781
      4 H1          1.2430   -2.2700    6.7260 hc        1 MOL      0.078791
      5 H2         -0.4580   -2.0380    6.2630 hc        1 MOL      0.078791
      6 H3          0.2080   -3.6810    6.4100 hc        1 MOL      0.078791
      7 N1          2.0190   -2.0640    4.2360 n         1 MOL     -0.603237
      8 C3          2.4930   -2.1040    2.8500 c3        1 MOL      0.190588
      9 C4          2.7590   -3.5270    2.3190 c         1 MOL      0.705505
     10 O2          3.4000   -4.3060    3.0060 o         1 MOL     -0.611899
     11 C5          3.7110   -1.1380    2.8560 c3        1 MOL     -0.330033
     12 C6          4.2970   -0.8560    1.4430 c         1 MOL      0.661288
     13 O3          5.3510   -0.2000    1.2460 o         1 MOL     -0.585810
     14 O4          3.6920   -1.4700    0.4890 o         1 MOL     -0.585810
     15 H4          2.5850   -1.6450    4.9570 hn        1 MOL      0.328640
     16 H5          1.7130   -1.7510    2.1670 h1        1 MOL     -0.021646
     17 H6          4.5120   -1.4820    3.5040 hc        1 MOL      0.074447
     18 H7          3.4390   -0.1350    3.1790 hc        1 MOL      0.074447
     19 N2          2.3440   -3.8590    1.0540 n         1 MOL     -0.445754
     20 C7          2.5030   -5.1910    0.4960 c3        1 MOL      0.077246
     21 C8          3.5850   -5.1490   -0.6760 c         1 MOL      0.454374
     22 O5          4.1650   -6.2020   -0.9980 o         1 MOL     -0.572665
     23 C9          1.1210   -5.8490    0.1370 c3        1 MOL      0.152612
     24 C10         0.0970   -5.7370    1.2610 c3        1 MOL      0.101921
     25 C11         1.4410   -7.3510   -0.2130 c3        1 MOL     -0.172547
     26 C12         0.5100   -6.4660    2.4960 c3        1 MOL     -0.305161
     27 H8          2.0460   -3.1500    0.4040 hn        1 MOL      0.263894
     28 H9          2.9810   -5.7710    1.2860 h1        1 MOL      0.053086
     29 H10         0.6710   -5.3290   -0.7080 hc        1 MOL     -0.006905
     30 H11        -0.8610   -6.1160    0.9080 hc        1 MOL     -0.009166
     31 H12         0.0470   -4.6780    1.5020 hc        1 MOL     -0.009166
     32 H13         0.5560   -7.9250   -0.4880 hc        1 MOL      0.023506
     33 H14         2.0870   -7.3770   -1.0900 hc        1 MOL      0.023506
     34 H15         1.8940   -7.8440    0.6490 hc        1 MOL      0.023506
     35 H16        -0.1630   -6.3130    3.3500 hc        1 MOL      0.058739
     36 H17         0.4500   -7.5060    2.1870 hc        1 MOL      0.058739
     37 H18         1.4690   -6.1060    2.8650 hc        1 MOL      0.058739
     38 N3          3.8630   -3.9220   -1.2410 n         1 MOL     -0.336072
     39 C13         4.7570   -3.8350   -2.4230 c3        1 MOL      0.258901
     40 C14         6.0900   -3.1610   -2.0970 c         1 MOL      0.288726
     41 O6          6.9150   -3.1600   -2.9820 o         1 MOL     -0.532980
     42 C15         4.0220   -3.2920   -3.6560 c3        1 MOL     -0.293940
     43 C16         3.2620   -1.9560   -3.4790 c         1 MOL      0.728287
     44 O7          3.6910   -1.0870   -2.6580 o         1 MOL     -0.672679
     45 O8          2.1530   -1.8570   -4.1100 o         1 MOL     -0.672679
     46 H19         3.5260   -3.1000   -0.7590 hn        1 MOL      0.154646
     47 H20         5.0430   -4.8240   -2.7690 h1        1 MOL      0.051173
     48 H21         3.3070   -4.0940   -3.8650 hc        1 MOL      0.064170
     49 H22         4.7250   -3.2180   -4.4830 hc        1 MOL      0.064170
     50 N4          6.2470   -2.7090   -0.8940 n         1 MOL     -0.151220
     51 C17         7.5260   -2.2520   -0.2690 c3        1 MOL     -0.231192
     52 C18         7.9620   -0.8410   -0.6510 c         1 MOL      0.564372
     53 O9          9.1950   -0.5960   -0.6320 o         1 MOL     -0.612914
     54 H23         5.3840   -2.7700   -0.3740 hn        1 MOL      0.152156
     55 H24         8.2270   -2.9350   -0.7530 h1        1 MOL      0.117596
     56 H25         7.5440   -2.4650    0.7960 h1        1 MOL      0.117596
     57 N5          7.0240    0.0740   -1.0680 n         1 MOL     -0.303420
     58 C19         7.3870    1.4410   -1.6090 c3        1 MOL      0.186848
     59 C20         7.3480    2.4940   -0.4760 c         1 MOL      0.353134
     60 O10         7.8780    3.6140   -0.6020 o         1 MOL     -0.571788
     61 C21         6.3840    1.8080   -2.7100 c3        1 MOL     -0.344632
     62 C22         4.8800    1.7920   -2.3540 c         1 MOL      0.781800
     63 O11         3.9990    2.0240   -3.2140 o         1 MOL     -0.690630
     64 O12         4.5480    1.4800   -1.1670 o         1 MOL     -0.690630
     65 H26         6.0410   -0.1640   -0.9600 hn        1 MOL      0.226018
     66 H27         8.4080    1.5030   -1.9830 h1        1 MOL      0.061959
     67 H28         6.5970    1.0510   -3.4750 hc        1 MOL      0.079195
     68 H29         6.7130    2.7600   -3.1260 hc        1 MOL      0.079195
     69 N6          6.7530    2.1860    0.6860 n         1 MOL     -0.136656
     70 C23         6.7530    3.0440    1.8760 c3        1 MOL     -0.050377
     71 C24         5.5440    3.9320    1.9130 c         1 MOL      0.612215
     72 O13         5.5910    4.8870    2.6440 o         1 MOL     -0.647607
     73 H30         6.2350    1.3200    0.7140 hn        1 MOL      0.052511
     74 H31         7.5990    3.7330    1.9470 h1        1 MOL      0.061931
     75 H32         6.8740    2.5090    2.8130 h1        1 MOL      0.061931
     76 N7          4.4500    3.6810    1.2030 n         1 MOL     -0.464021
     77 C25         3.1030    4.2570    1.3340 c3        1 MOL      0.147520
     78 C26         2.0590    3.1800    1.2550 c         1 MOL      0.612869
     79 O14         2.3230    2.0710    0.8170 o         1 MOL     -0.601760
     80 C27         2.8390    5.4840    0.4470 c3        1 MOL      0.051895
     81 C28         3.6670    6.7690    0.6410 c3        1 MOL     -0.131803
     82 C29         3.3540    7.8870   -0.2710 c         1 MOL      0.684432
     83 N8          4.1900    8.8940   -0.2770 n         1 MOL     -0.806245
     84 O15         2.2160    8.0010   -0.7700 o         1 MOL     -0.587421
     85 H33         4.5810    2.8830    0.5990 hn        1 MOL      0.289177
     86 H34         3.0400    4.6180    2.3690 h1        1 MOL      0.019691
     87 H35         1.8040    5.7360    0.6510 hc        1 MOL      0.000780
     88 H36         2.8120    5.2540   -0.6210 hc        1 MOL      0.000780
     89 H37         4.7260    6.5430    0.4390 hc        1 MOL      0.046929
     90 H38         3.5040    7.1210    1.6490 hc        1 MOL      0.046929
     91 H39         5.0370    8.8650    0.2760 hn        1 MOL      0.351854
     92 H40         3.9440    9.7390   -0.7830 hn        1 MOL      0.351854
     93 N9          0.9210    3.4810    1.8870 n         1 MOL     -0.585800
     94 C30        -0.2910    2.5690    2.0170 c3        1 MOL      0.243872
     95 C31        -1.4640    3.0430    1.1030 c         1 MOL      0.391232
     96 O16        -2.0770    4.0890    1.4020 o         1 MOL     -0.559118
     97 C32        -0.7320    2.4050    3.5300 c3        1 MOL      0.175329
     98 C33        -2.1570    1.8340    3.7190 c3        1 MOL     -0.326173
     99 C34         0.2720    1.4510    4.2730 c3        1 MOL     -0.326173
    100 H41         0.9300    4.3130    2.4510 hn        1 MOL      0.298808
    101 H42         0.0050    1.5650    1.7330 h1        1 MOL      0.041849
    102 H43        -0.6850    3.4280    3.8990 hc        1 MOL     -0.025045
    103 H44        -2.2790    1.5390    4.7590 hc        1 MOL      0.075397
    104 H45        -2.8200    2.6950    3.6040 hc        1 MOL      0.075397
    105 H46        -2.4060    1.0770    2.9770 hc        1 MOL      0.075397
    106 H47         0.0190    1.4980    5.3310 hc        1 MOL      0.075397
    107 H48        -0.0410    0.4050    4.1450 hc        1 MOL      0.075397
    108 H49         1.3330    1.6370    4.1440 hc        1 MOL      0.075397
    109 N10        -1.9460    2.2530    0.1000 n         1 MOL     -0.220274
    110 C35        -3.1100    2.5300   -0.6840 c3        1 MOL      0.049429
    111 C36        -4.3710    2.0310    0.0540 c         1 MOL      0.279851
    112 O17        -4.3430    1.1560    0.9420 o         1 MOL     -0.247366
    113 C37        -2.9320    1.8460   -2.0720 c3        1 MOL     -0.226077
    114 C38        -4.0030    2.0160   -3.1300 c         1 MOL      0.735512
    115 N11        -3.8970    3.0060   -3.9400 n         1 MOL     -0.754503
    116 O18        -4.9170    1.2280   -3.1290 o         1 MOL     -0.542547
    117 H50        -1.4910    1.3580   -0.0290 hn        1 MOL      0.190423
    118 H51        -3.2030    3.6000   -0.8740 h1        1 MOL      0.057807
    119 H52        -2.7680    0.7680   -1.9860 hc        1 MOL      0.068390
    120 H53        -2.0320    2.2640   -2.5040 hc        1 MOL      0.068390
    121 H54        -3.2110    3.7290   -3.7660 hn        1 MOL      0.347408
    122 H55        -4.5460    3.1230   -4.7120 hn        1 MOL      0.347408
    123 N12        -5.4580    2.5100   -0.5230 n         1 MOL     -0.393256
    124 C39        -6.8140    2.0120   -0.0850 c3        1 MOL      0.285653
    125 C40        -6.9850    0.5330    0.0070 c         1 MOL      0.832556
    126 O19        -7.4500    0.0850    0.9890 o         1 MOL     -0.597923
    127 C41        -7.8530    2.6630   -1.0150 c3        1 MOL     -0.093218
    128 C42        -9.3020    2.1160   -0.7620 ca        1 MOL     -0.034843
    129 C43        -9.9640    2.3930    0.4490 ca        1 MOL     -0.119368
    130 C44        -9.9130    1.2470   -1.6660 ca        1 MOL     -0.119368
    131 C45       -11.0940    1.7140    0.8190 ca        1 MOL     -0.328623
    132 C46       -11.1120    0.5790   -1.3560 ca        1 MOL     -0.328623
    133 C47       -11.7000    0.7910   -0.0600 ca        1 MOL      0.419384
    134 O20       -12.8540    0.2280    0.4640 oh        1 MOL     -0.530243
    135 H56        -5.3930    3.2690   -1.2010 hn        1 MOL      0.213898
    136 H57        -6.9620    2.3720    0.9370 h1        1 MOL     -0.046565
    137 H58        -7.4690    2.4390   -2.0150 hc        1 MOL      0.017336
    138 H59        -7.8470    3.7240   -0.7520 hc        1 MOL      0.017336
    139 H60        -9.4820    3.0180    1.1940 ha        1 MOL      0.134702
    140 H61        -9.4240    1.0400   -2.6070 ha        1 MOL      0.134702
    141 H62       -11.4510    1.7480    1.8350 ha        1 MOL      0.164138
    142 H63       -11.4940   -0.1220   -2.0830 ha        1 MOL      0.164138
    143 H64       -13.4990   -0.0480   -0.1880 ho        1 MOL      0.363542
    144 N13        -6.5240   -0.1370   -1.0260 n         1 MOL     -0.685311
    145 C48        -6.4940   -1.5980   -1.1650 c3        1 MOL      0.410860
    146 C49        -5.5950   -2.2840   -0.0920 c         1 MOL      0.298383
    147 O21        -5.9240   -3.3740    0.4140 o         1 MOL     -0.504333
    148 C50        -6.1860   -2.1000   -2.5810 c3        1 MOL     -0.363372
    149 C51        -4.6890   -2.3790   -2.8720 c3        1 MOL     -0.125735
    150 C52        -4.4400   -2.3540   -4.3820 c         1 MOL      0.739556
    151 O22        -5.2560   -3.0160   -5.0890 o         1 MOL     -0.749923
    152 O23        -3.4360   -1.8020   -4.8460 o         1 MOL     -0.749923
    153 H65        -6.1540    0.4090   -1.7920 hn        1 MOL      0.322110
    154 H66        -7.4720   -1.9940   -0.8960 h1        1 MOL     -0.023334
    155 H67        -6.4780   -1.3150   -3.2760 hc        1 MOL      0.084146
    156 H68        -6.7210   -3.0410   -2.6950 hc        1 MOL      0.084146
    157 H69        -4.3830   -3.3840   -2.5850 hc        1 MOL      0.052792
    158 H70        -4.0580   -1.6940   -2.3010 hc        1 MOL      0.052792
    159 N14        -4.5130   -1.5850    0.3940 n         1 MOL     -0.152193
    160 C53        -3.6310   -2.0450    1.4770 c3        1 MOL     -0.033766
    161 C54        -4.2390   -1.8870    2.8860 c         1 MOL      0.386750
    162 O24        -4.0500   -2.7750    3.7730 o         1 MOL     -0.554058
    163 C55        -2.2250   -1.5990    1.3100 c3        1 MOL     -0.018756
    164 C56        -1.6660   -1.7950   -0.1370 c3        1 MOL      0.032948
    165 C57        -0.2840   -1.1680   -0.3470 c         1 MOL      0.682562
    166 O25         0.7660   -1.8460   -0.6340 o         1 MOL     -0.747911
    167 O26        -0.1110    0.0680   -0.2610 o         1 MOL     -0.747911
    168 H71        -4.3610   -0.6200    0.1510 hn        1 MOL      0.178056
    169 H72        -3.5500   -3.1330    1.4430 h1        1 MOL      0.079017
    170 H73        -1.5680   -1.9580    2.1080 hc        1 MOL      0.037685
    171 H74        -2.3220   -0.5280    1.4530 hc        1 MOL      0.037685
    172 H75        -2.3640   -1.3210   -0.8330 hc        1 MOL     -0.026749
    173 H76        -1.6040   -2.8450   -0.4180 hc        1 MOL     -0.026749
    174 N15        -5.0270   -0.8190    3.0290 n         1 MOL      0.083328
    175 C58        -5.9440   -0.4080    4.0710 c3        1 MOL     -0.321834
    176 H77        -6.8850   -0.9470    3.9590 h1        1 MOL      0.105295
    177 H78        -5.5100   -0.6330    5.0460 h1        1 MOL      0.105295
    178 H79        -6.1270    0.6630    3.9930 h1        1 MOL      0.105295
    179 H80        -5.1220   -0.2310    2.2130 hn        1 MOL     -0.087120
    180 Ca1         2.4090    0.2050   -0.9510 Ca        1 MOL      1.694260
    181 O27         1.7580    2.4730   -2.1410 oh        1 MOL     -0.895283
    182 H81         2.4250    2.4900   -2.8280 ho        1 MOL      0.417632
    183 H82         0.9490    2.2260   -2.6030 ho        1 MOL      0.417632
    184 O28         0.7620    0.2170   -3.3390 oh        1 MOL     -0.895283
    185 H83        -0.1620   -0.0380   -3.2950 ho        1 MOL      0.417632
    186 H84         1.1890   -0.5200   -3.7710 ho        1 MOL      0.417632
@<TRIPOS>BOND
     1    1    2 1   
     2    1    4 1   
     3    1    5 1   
     4    1    6 1   
     5    2    3 2   
     6    2    7 1   
     7    7    8 1   
     8    7   15 1   
     9    8    9 1   
    10    8   11 1   
    11    8   16 1   
    12    9   10 2   
    13    9   19 1   
    14   11   12 1   
    15   11   17 1   
    16   11   18 1   
    17   12   13 1   
    18   12   14 1   
    19   19   20 1   
    20   19   27 1   
    21   20   21 1   
    22   20   23 1   
    23   20   28 1   
    24   21   22 2   
    25   21   38 1   
    26   23   24 1   
    27   23   25 1   
    28   23   29 1   
    29   24   26 1   
    30   24   30 1   
    31   24   31 1   
    32   25   32 1   
    33   25   33 1   
    34   25   34 1   
    35   26   35 1   
    36   26   36 1   
    37   26   37 1   
    38   38   39 1   
    39   38   46 1   
    40   39   40 1   
    41   39   42 1   
    42   39   47 1   
    43   40   41 2   
    44   40   50 1   
    45   42   43 1   
    46   42   48 1   
    47   42   49 1   
    48   43   44 1   
    49   43   45 1   
    50   50   51 1   
    51   50   54 1   
    52   51   52 1   
    53   51   55 1   
    54   51   56 1   
    55   52   53 2   
    56   52   57 1   
    57   57   58 1   
    58   57   65 1   
    59   58   59 1   
    60   58   61 1   
    61   58   66 1   
    62   59   60 2   
    63   59   69 1   
    64   61   62 1   
    65   61   67 1   
    66   61   68 1   
    67   62   63 1   
    68   62   64 1   
    69   69   70 1   
    70   69   73 1   
    71   70   71 1   
    72   70   74 1   
    73   70   75 1   
    74   71   72 2   
    75   71   76 1   
    76   76   77 1   
    77   76   85 1   
    78   77   78 1   
    79   77   80 1   
    80   77   86 1   
    81   78   79 2   
    82   78   93 1   
    83   80   81 1   
    84   80   87 1   
    85   80   88 1   
    86   81   82 1   
    87   81   89 1   
    88   81   90 1   
    89   82   83 1   
    90   82   84 2   
    91   83   91 1   
    92   83   92 1   
    93   93   94 1   
    94   93  100 1   
    95   94   95 1   
    96   94   97 1   
    97   94  101 1   
    98   95   96 2   
    99   95  109 1   
   100   97   98 1   
   101   97   99 1   
   102   97  102 1   
   103   98  103 1   
   104   98  104 1   
   105   98  105 1   
   106   99  106 1   
   107   99  107 1   
   108   99  108 1   
   109  109  110 1   
   110  109  117 1   
   111  110  111 1   
   112  110  113 1   
   113  110  118 1   
   114  111  112 2   
   115  111  123 1   
   116  113  114 1   
   117  113  119 1   
   118  113  120 1   
   119  114  115 1   
   120  114  116 2   
   121  115  121 1   
   122  115  122 1   
   123  123  124 1   
   124  123  135 1   
   125  124  125 1   
   126  124  127 1   
   127  124  136 1   
   128  125  126 2   
   129  125  144 1   
   130  127  128 1   
   131  127  137 1   
   132  127  138 1   
   133  128  129 ar  
   134  128  130 ar  
   135  129  131 ar  
   136  129  139 1   
   137  130  132 ar  
   138  130  140 1   
   139  131  133 ar  
   140  131  141 1   
   141  132  133 ar  
   142  132  142 1   
   143  133  134 1   
   144  134  143 1   
   145  144  145 1   
   146  144  153 1   
   147  145  146 1   
   148  145  148 1   
   149  145  154 1   
   150  146  147 2   
   151  146  159 1   
   152  148  149 1   
   153  148  155 1   
   154  148  156 1   
   155  149  150 1   
   156  149  157 1   
   157  149  158 1   
   158  150  151 1   
   159  150  152 1   
   160  159  160 1   
   161  159  168 1   
   162  160  161 1   
   163  160  163 1   
   164  160  169 1   
   165  161  162 2   
   166  161  174 1   
   167  163  164 1   
   168  163  170 1   
   169  163  171 1   
   170  164  165 1   
   171  164  172 1   
   172  164  173 1   
   173  165  166 1   
   174  165  167 1   
   175  174  175 1   
   176  174  179 1   
   177  175  176 1   
   178  175  177 1   
   179  175  178 1   
   180  181  182 1   
   181  181  183 1   
   182  184  185 1   
   183  184  186 1   
@<TRIPOS>SUBSTRUCTURE
     1 MOL         1 TEMP              0 ****  ****    0 ROOT
