@<TRIPOS>MOLECULE
MOL
  176   174     1     0     0
SMALL
resp


@<TRIPOS>ATOM
      1 C1          0.8470    2.9590    6.2860 c3        1 MOL     -0.296926
      2 C2          0.3560    2.7640    4.8310 c         1 MOL      0.770337
      3 O1          1.1810    2.6300    3.9830 o         1 MOL     -0.602217
      4 H1          0.6930    2.0380    6.8480 hc        1 MOL      0.069578
      5 H2          1.9080    3.2080    6.2810 hc        1 MOL      0.069578
      6 H3          0.2850    3.7680    6.7540 hc        1 MOL      0.069578
      7 N1         -0.9130    2.7310    4.5050 n         1 MOL     -0.697184
      8 C3         -1.3200    2.5090    3.0990 c3        1 MOL      0.273311
      9 C4         -1.6110    3.7470    2.3270 c         1 MOL      0.616862
     10 O2         -2.4170    4.5590    2.8220 o         1 MOL     -0.572717
     11 C5         -2.3960    1.4500    3.0790 c3        1 MOL     -0.372866
     12 C6         -2.9300    1.0060    1.6980 c         1 MOL      0.935384
     13 O3         -2.8810    1.7630    0.7080 o         1 MOL     -0.810036
     14 O4         -3.1800   -0.1890    1.4900 o         1 MOL     -0.810036
     15 H4         -1.5740    2.7420    5.2760 hn        1 MOL      0.337719
     16 H5         -0.4560    2.0770    2.5850 h1        1 MOL      0.049318
     17 H6         -3.2840    1.8230    3.6060 hc        1 MOL      0.078433
     18 H7         -1.8970    0.5810    3.5000 hc        1 MOL      0.078433
     19 N2         -0.9160    3.8740    1.1930 n         1 MOL     -0.494582
     20 C7         -0.9210    5.0060    0.2830 c3        1 MOL     -0.135517
     21 C8         -2.2330    5.2220   -0.5570 c         1 MOL      0.490320
     22 O5         -2.5050    6.3080   -1.1380 o         1 MOL     -0.557259
     23 C9          0.4050    5.0400   -0.5210 c3        1 MOL      0.460596
     24 C10         0.7590    6.5110   -0.9300 c3        1 MOL     -0.536529
     25 C11         1.9600    6.4450   -1.8630 c3        1 MOL      0.332708
     26 C12         2.4670    7.8250   -2.2260 c3        1 MOL      0.080630
     27 N3          3.3480    7.9480   -3.3270 n4        1 MOL     -0.378671
     28 H8         -0.3500    3.0860    0.9010 hn        1 MOL      0.250857
     29 H9         -0.9350    5.8800    0.9410 h1        1 MOL      0.097503
     30 H10         0.2880    4.4440   -1.4160 hc        1 MOL     -0.037122
     31 H11         1.2410    4.6950    0.1050 hc        1 MOL     -0.037122
     32 H12         1.1830    6.9490   -0.0240 hc        1 MOL      0.125775
     33 H13        -0.0950    6.9820   -1.3920 hc        1 MOL      0.125775
     34 H14         1.7100    5.8880   -2.7640 hc        1 MOL     -0.069980
     35 H15         2.7920    5.9010   -1.4270 hc        1 MOL     -0.069980
     36 H16         2.8460    8.2850   -1.3130 hx        1 MOL      0.054907
     37 H17         1.6020    8.3840   -2.5810 hx        1 MOL      0.054907
     38 H18         3.2350    8.8540   -3.7620 hn        1 MOL      0.331420
     39 H19         4.3040    7.7840   -3.0360 hn        1 MOL      0.331420
     40 H20         3.1610    7.2630   -4.0460 hn        1 MOL      0.331420
     41 N4         -2.9970    4.1670   -0.8840 n         1 MOL     -0.278475
     42 C13        -4.1950    4.0770   -1.7220 c3        1 MOL      0.036561
     43 C14        -5.5240    3.6340   -1.1120 c         1 MOL      0.420571
     44 O6         -6.6750    3.8030   -1.6710 o         1 MOL     -0.540049
     45 C15        -3.8920    3.2470   -3.0170 c3        1 MOL     -0.207421
     46 C16        -3.2880    1.8520   -2.7440 c         1 MOL      0.748394
     47 O7         -2.1000    1.5970   -2.9700 o         1 MOL     -0.758551
     48 O8         -4.0160    1.0650   -2.0890 o         1 MOL     -0.758551
     49 H21        -2.6880    3.2710   -0.5410 hn        1 MOL      0.252792
     50 H22        -4.5090    5.0650   -2.0470 h1        1 MOL      0.094976
     51 H23        -3.1800    3.7450   -3.6690 hc        1 MOL      0.055892
     52 H24        -4.7940    3.1280   -3.6080 hc        1 MOL      0.055892
     53 N5         -5.3440    2.9850    0.0610 n         1 MOL     -0.238312
     54 C17        -6.4330    2.5330    0.9820 c3        1 MOL     -0.183711
     55 C18        -6.9850    1.1780    0.6160 c         1 MOL      0.510428
     56 O9         -8.0560    0.8860    1.1400 o         1 MOL     -0.558486
     57 H25        -4.3770    2.7930    0.2590 hn        1 MOL      0.188648
     58 H26        -7.2330    3.2670    0.9030 h1        1 MOL      0.121763
     59 H27        -6.0460    2.5320    1.9940 h1        1 MOL      0.121763
     60 N6         -6.3480    0.4250   -0.3010 n         1 MOL     -0.146192
     61 C19        -6.8570   -0.8640   -0.9040 c3        1 MOL     -0.141162
     62 C20        -6.8060   -2.1080    0.0030 c         1 MOL      0.513415
     63 O10        -7.5380   -3.0470   -0.1940 o         1 MOL     -0.549338
     64 C21        -6.0750   -1.1430   -2.1620 c3        1 MOL     -0.219215
     65 C22        -4.8140   -1.9440   -1.9700 c         1 MOL      0.766356
     66 N7         -4.5220   -2.7760   -2.9370 n         1 MOL     -0.822081
     67 O11        -4.0640   -1.7780   -1.0360 o         1 MOL     -0.673984
     68 H28        -5.5180    0.7210   -0.7890 hn        1 MOL      0.195634
     69 H29        -7.9190   -0.7000   -1.0770 h1        1 MOL      0.128881
     70 H30        -6.0240   -0.3010   -2.8530 hc        1 MOL      0.099397
     71 H31        -6.6800   -1.8030   -2.7800 hc        1 MOL      0.099397
     72 H32        -4.9340   -2.7670   -3.8580 hn        1 MOL      0.358642
     73 H33        -3.7210   -3.3680   -2.7380 hn        1 MOL      0.358642
     74 N8         -5.9490   -2.1230    1.0460 n         1 MOL     -0.228369
     75 C23        -5.8160   -3.0640    2.1440 c3        1 MOL     -0.103935
     76 C24        -4.4610   -3.8000    2.3230 c         1 MOL      0.470080
     77 O12        -4.3640   -4.7030    3.1400 o         1 MOL     -0.549264
     78 H34        -5.3690   -1.3030    1.0840 hn        1 MOL      0.169972
     79 H35        -6.6560   -3.7610    2.1570 h1        1 MOL      0.098870
     80 H36        -6.0290   -2.5610    3.0870 h1        1 MOL      0.098870
     81 N9         -3.4670   -3.4500    1.5020 n         1 MOL     -0.252537
     82 C25        -2.1230   -4.0890    1.5800 c3        1 MOL      0.010477
     83 C26        -0.9310   -3.1910    1.1480 c         1 MOL      0.665198
     84 O13        -1.0000   -2.2300    0.3820 o         1 MOL     -0.660902
     85 C27        -2.0340   -5.4430    0.8220 c3        1 MOL     -0.091221
     86 C28        -2.1450   -5.3400   -0.7630 ca        1 MOL     -0.047866
     87 C29        -0.9830   -5.0920   -1.5170 ca        1 MOL     -0.086001
     88 C30        -3.3710   -5.5430   -1.4420 ca        1 MOL     -0.086001
     89 C31        -1.0160   -5.0490   -2.9140 ca        1 MOL     -0.295436
     90 C32        -3.4090   -5.4910   -2.8400 ca        1 MOL     -0.295436
     91 C33        -2.2300   -5.1560   -3.5370 ca        1 MOL      0.387075
     92 O14        -2.3350   -5.0090   -4.8890 oh        1 MOL     -0.564727
     93 H37        -3.6380   -2.7500    0.7970 hn        1 MOL      0.242849
     94 H38        -1.9960   -4.2930    2.6390 h1        1 MOL      0.070652
     95 H39        -2.7550   -6.1380    1.2430 hc        1 MOL      0.067668
     96 H40        -1.0990   -5.9650    1.0490 hc        1 MOL      0.067668
     97 H41        -0.0150   -5.0530   -1.0410 ha        1 MOL      0.135318
     98 H42        -4.2850   -5.7170   -0.8900 ha        1 MOL      0.135318
     99 H43        -0.1130   -4.8070   -3.4390 ha        1 MOL      0.156749
    100 H44        -4.3310   -5.6950   -3.3570 ha        1 MOL      0.156749
    101 H45        -3.2120   -5.1220   -5.2510 ho        1 MOL      0.398752
    102 N10         0.2560   -3.5620    1.6040 n         1 MOL     -0.459305
    103 C34         1.5460   -2.8130    1.4890 c3        1 MOL     -0.114200
    104 C35         2.6280   -3.6930    0.9340 c         1 MOL      0.532229
    105 O15         2.5990   -4.8760    1.1020 o         1 MOL     -0.548186
    106 C36         1.8230   -1.9830    2.7790 c3        1 MOL      0.113568
    107 C37         2.2070   -2.9200    3.9550 c3        1 MOL      0.081960
    108 C38         0.6650   -1.0410    3.1540 c3        1 MOL      0.015175
    109 C39         2.6270   -2.2720    5.2670 c3        1 MOL     -0.133865
    110 H46         0.4610   -4.4190    2.0850 hn        1 MOL      0.256646
    111 H47         1.4340   -2.0660    0.7000 h1        1 MOL      0.117435
    112 H48         2.7170   -1.4230    2.5310 hc        1 MOL     -0.061285
    113 H49         3.0410   -3.5620    3.6730 hc        1 MOL     -0.006560
    114 H50         1.3580   -3.5390    4.2610 hc        1 MOL     -0.006560
    115 H51         0.5990   -0.3820    2.2800 hc        1 MOL      0.017313
    116 H52        -0.2810   -1.5170    3.3820 hc        1 MOL      0.017313
    117 H53         0.9210   -0.3530    3.9500 hc        1 MOL      0.017313
    118 H54         2.8060   -3.0960    5.9510 hc        1 MOL      0.027532
    119 H55         3.5540   -1.7110    5.1500 hc        1 MOL      0.027532
    120 H56         1.8340   -1.6280    5.6440 hc        1 MOL      0.027532
    121 N11         3.5930   -3.0620    0.3540 n         1 MOL     -0.137762
    122 C40         4.8280   -3.6590   -0.2300 c3        1 MOL     -0.233060
    123 C41         5.9970   -2.6950   -0.0040 c         1 MOL      0.552302
    124 O16         5.8740   -1.5510    0.4240 o         1 MOL     -0.420657
    125 C42         4.5690   -3.8790   -1.7660 c3        1 MOL      0.059098
    126 O17         4.6340   -2.6400   -2.5000 oh        1 MOL     -0.563134
    127 H57         3.5200   -2.0520    0.2990 hn        1 MOL      0.083995
    128 H58         4.9460   -4.5800    0.3380 h1        1 MOL      0.133861
    129 H59         3.6030   -4.3550   -1.9100 h1        1 MOL      0.084517
    130 H60         5.2770   -4.5900   -2.1960 h1        1 MOL      0.084517
    131 H61         3.7320   -2.3060   -2.5200 ho        1 MOL      0.408189
    132 N12         7.2170   -3.1420   -0.3350 n         1 MOL     -0.374467
    133 C43         8.4360   -2.4770    0.0600 c3        1 MOL      0.005653
    134 C44         8.6220   -1.0300   -0.5100 c         1 MOL      0.534513
    135 O18         9.0520   -0.1990    0.2490 o         1 MOL     -0.548339
    136 C45         9.6440   -3.3260   -0.3670 c3        1 MOL     -0.203306
    137 H62         7.3050   -4.0780   -0.7050 hn        1 MOL      0.278036
    138 H63         8.3060   -2.3400    1.1380 h1        1 MOL      0.092966
    139 H64         9.4650   -4.3990   -0.2960 hc        1 MOL      0.071422
    140 H65         9.8870   -3.1490   -1.4180 hc        1 MOL      0.071422
    141 H66        10.5020   -3.0770    0.2530 hc        1 MOL      0.071422
    142 N13         8.1680   -0.7390   -1.6840 n         1 MOL     -0.356060
    143 C46         8.0980    0.6210   -2.2200 c3        1 MOL      0.048672
    144 C47         6.9830    1.4530   -1.5230 c         1 MOL      0.528640
    145 O19         7.1160    2.6390   -1.3970 o         1 MOL     -0.562936
    146 C48         8.0390    0.6450   -3.7550 c3        1 MOL     -0.338410
    147 H67         7.7660   -1.5120   -2.1980 hn        1 MOL      0.265269
    148 H68         9.0640    1.0520   -1.9650 h1        1 MOL      0.108887
    149 H69         7.2340   -0.0060   -4.1010 hc        1 MOL      0.099976
    150 H70         7.7740    1.6740   -3.9760 hc        1 MOL      0.099976
    151 H71         9.0130    0.2760   -4.0810 hc        1 MOL      0.099976
    152 N14         5.8720    0.8720   -1.0770 n         1 MOL     -0.204639
    153 C49         4.7720    1.6990   -0.4900 c3        1 MOL     -0.197108
    154 C50         5.0790    1.9180    0.9890 c         1 MOL      0.616847
    155 O20         4.9080    3.0420    1.4800 o         1 MOL     -0.570394
    156 C51         3.4590    0.9310   -0.8070 c3        1 MOL     -0.089182
    157 C52         2.2830    1.7850   -0.3040 c3        1 MOL     -0.064908
    158 C53         0.9120    1.0740   -0.5450 c         1 MOL      0.758800
    159 O21        -0.0150    1.3240    0.2120 o         1 MOL     -0.781852
    160 O22         0.7170    0.3070   -1.5190 o         1 MOL     -0.781852
    161 H72         5.7530   -0.1400   -1.0730 hn        1 MOL      0.107674
    162 H73         4.6570    2.6820   -0.9470 h1        1 MOL      0.131765
    163 H74         3.4370   -0.0650   -0.3720 hc        1 MOL      0.055087
    164 H75         3.3350    0.7980   -1.8780 hc        1 MOL      0.055087
    165 H76         2.3020    2.7460   -0.8150 hc        1 MOL      0.040936
    166 H77         2.3230    1.9620    0.7680 hc        1 MOL      0.040936
    167 N15         5.4650    0.9050    1.7220 n         1 MOL     -0.305802
    168 C54         6.2450    1.0490    3.0000 c3        1 MOL     -0.083966
    169 H78         6.9500    1.8740    2.9030 h1        1 MOL      0.073191
    170 H79         5.5600    1.2520    3.8230 h1        1 MOL      0.073191
    171 H80         6.7910    0.1270    3.1990 h1        1 MOL      0.073191
    172 H81         5.7100    0.0970    1.1720 hn        1 MOL      0.226124
    173 Ca1        -1.9100   -0.0930   -0.9360 Ca        1 MOL      1.796112
    174 O23        -1.6700   -1.4850   -3.2930 oh        1 MOL     -0.805263
    175 H82        -0.9470   -1.9210   -3.7430 ho        1 MOL      0.404075
    176 H83        -2.1420   -1.0290   -3.9800 ho        1 MOL      0.404075
@<TRIPOS>BOND
     1    1    2 1   
     2    1    4 1   
     3    1    5 1   
     4    1    6 1   
     5    2    3 2   
     6    2    7 1   
     7    7    8 1   
     8    7   15 1   
     9    8    9 1   
    10    8   11 1   
    11    8   16 1   
    12    9   10 2   
    13    9   19 1   
    14   11   12 1   
    15   11   17 1   
    16   11   18 1   
    17   12   13 1   
    18   12   14 1   
    19   19   20 1   
    20   19   28 1   
    21   20   21 1   
    22   20   23 1   
    23   20   29 1   
    24   21   22 2   
    25   21   41 1   
    26   23   24 1   
    27   23   30 1   
    28   23   31 1   
    29   24   25 1   
    30   24   32 1   
    31   24   33 1   
    32   25   26 1   
    33   25   34 1   
    34   25   35 1   
    35   26   27 1   
    36   26   36 1   
    37   26   37 1   
    38   27   38 1   
    39   27   39 1   
    40   27   40 1   
    41   41   42 1   
    42   41   49 1   
    43   42   43 1   
    44   42   45 1   
    45   42   50 1   
    46   43   44 2   
    47   43   53 1   
    48   45   46 1   
    49   45   51 1   
    50   45   52 1   
    51   46   47 1   
    52   46   48 1   
    53   53   54 1   
    54   53   57 1   
    55   54   55 1   
    56   54   58 1   
    57   54   59 1   
    58   55   56 2   
    59   55   60 1   
    60   60   61 1   
    61   60   68 1   
    62   61   62 1   
    63   61   64 1   
    64   61   69 1   
    65   62   63 2   
    66   62   74 1   
    67   64   65 1   
    68   64   70 1   
    69   64   71 1   
    70   65   66 1   
    71   65   67 2   
    72   66   72 1   
    73   66   73 1   
    74   74   75 1   
    75   74   78 1   
    76   75   76 1   
    77   75   79 1   
    78   75   80 1   
    79   76   77 2   
    80   76   81 1   
    81   81   82 1   
    82   81   93 1   
    83   82   83 1   
    84   82   85 1   
    85   82   94 1   
    86   83   84 2   
    87   83  102 1   
    88   85   86 1   
    89   85   95 1   
    90   85   96 1   
    91   86   87 ar  
    92   86   88 ar  
    93   87   89 ar  
    94   87   97 1   
    95   88   90 ar  
    96   88   98 1   
    97   89   91 ar  
    98   89   99 1   
    99   90   91 ar  
   100   90  100 1   
   101   91   92 1   
   102   92  101 1   
   103  102  103 1   
   104  102  110 1   
   105  103  104 1   
   106  103  106 1   
   107  103  111 1   
   108  104  105 2   
   109  104  121 1   
   110  106  107 1   
   111  106  108 1   
   112  106  112 1   
   113  107  109 1   
   114  107  113 1   
   115  107  114 1   
   116  108  115 1   
   117  108  116 1   
   118  108  117 1   
   119  109  118 1   
   120  109  119 1   
   121  109  120 1   
   122  121  122 1   
   123  121  127 1   
   124  122  123 1   
   125  122  125 1   
   126  122  128 1   
   127  123  124 2   
   128  123  132 1   
   129  125  126 1   
   130  125  129 1   
   131  125  130 1   
   132  126  131 1   
   133  132  133 1   
   134  132  137 1   
   135  133  134 1   
   136  133  136 1   
   137  133  138 1   
   138  134  135 2   
   139  134  142 1   
   140  136  139 1   
   141  136  140 1   
   142  136  141 1   
   143  142  143 1   
   144  142  147 1   
   145  143  144 1   
   146  143  146 1   
   147  143  148 1   
   148  144  145 2   
   149  144  152 1   
   150  146  149 1   
   151  146  150 1   
   152  146  151 1   
   153  152  153 1   
   154  152  161 1   
   155  153  154 1   
   156  153  156 1   
   157  153  162 1   
   158  154  155 2   
   159  154  167 1   
   160  156  157 1   
   161  156  163 1   
   162  156  164 1   
   163  157  158 1   
   164  157  165 1   
   165  157  166 1   
   166  158  159 1   
   167  158  160 1   
   168  167  168 1   
   169  167  172 1   
   170  168  169 1   
   171  168  170 1   
   172  168  171 1   
   173  174  175 1   
   174  174  176 1   
@<TRIPOS>SUBSTRUCTURE
     1 MOL         1 TEMP              0 ****  ****    0 ROOT
