@<TRIPOS>MOLECULE
MOL
  183   181     1     0     0
SMALL
resp


@<TRIPOS>ATOM
      1 C1         -0.4060    1.9560    6.2010 c3        1 MOL     -0.277098
      2 C2         -0.9020    1.9910    4.7380 c         1 MOL      0.742249
      3 O1         -0.2950    2.7070    3.9430 o         1 MOL     -0.572706
      4 H1         -1.1240    1.4120    6.8150 hc        1 MOL      0.060072
      5 H2          0.5620    1.4570    6.2460 hc        1 MOL      0.060072
      6 H3         -0.3070    2.9750    6.5770 hc        1 MOL      0.060072
      7 N1         -1.9900    1.2530    4.3460 n         1 MOL     -0.695037
      8 C3         -2.7650    1.3140    3.1000 c3        1 MOL      0.282284
      9 C4         -3.1370    2.7660    2.5920 c         1 MOL      0.508788
     10 O2         -3.9410    3.4090    3.2730 o         1 MOL     -0.625590
     11 C5         -3.9000    0.3420    3.1590 c3        1 MOL      0.012373
     12 C6         -4.5100    0.0900    1.7930 c         1 MOL      0.616927
     13 O3         -5.6490   -0.3630    1.7980 o         1 MOL     -0.632930
     14 O4         -4.0350    0.4770    0.6900 o         1 MOL     -0.632930
     15 H4         -2.2910    0.5620    5.0250 hn        1 MOL      0.318184
     16 H5         -2.1510    0.8840    2.3060 h1        1 MOL      0.024427
     17 H6         -4.6160    0.6330    3.9260 hc        1 MOL     -0.034873
     18 H7         -3.4660   -0.5590    3.6080 hc        1 MOL     -0.034873
     19 N2         -2.6910    3.1990    1.4670 n         1 MOL     -0.164668
     20 C7         -2.9050    4.6360    1.0330 c3        1 MOL     -0.039651
     21 C8         -3.9400    4.6880   -0.0590 c         1 MOL      0.474288
     22 O5         -4.5640    5.7270   -0.0910 o         1 MOL     -0.588451
     23 C9         -1.5490    5.2730    0.5150 c3        1 MOL      0.174128
     24 C10        -0.6840    5.5930    1.7430 c3        1 MOL      0.045228
     25 C11        -1.7540    6.3890   -0.4140 c3        1 MOL     -0.403551
     26 C12         0.7830    5.8880    1.4510 c3        1 MOL     -0.211596
     27 H8         -2.1330    2.6220    0.8530 hn        1 MOL      0.014385
     28 H9         -3.2480    5.1510    1.9180 h1        1 MOL      0.080113
     29 H10        -1.1170    4.3860    0.0460 hc        1 MOL      0.036588
     30 H11        -0.8220    4.8670    2.5530 hc        1 MOL      0.004864
     31 H12        -1.1400    6.4130    2.2930 hc        1 MOL      0.004864
     32 H13        -2.0740    5.9940   -1.3730 hc        1 MOL      0.097079
     33 H14        -2.4540    7.1400   -0.0290 hc        1 MOL      0.097079
     34 H15        -0.8250    6.8840   -0.7130 hc        1 MOL      0.097079
     35 H16         0.8030    6.7520    0.7870 hc        1 MOL      0.037143
     36 H17         1.3840    6.0700    2.3440 hc        1 MOL      0.037143
     37 H18         1.4250    5.1180    1.0090 hc        1 MOL      0.037143
     38 N3         -4.2500    3.6680   -0.7810 n         1 MOL     -0.321513
     39 C13        -5.2710    3.7120   -1.8550 c3        1 MOL      0.079333
     40 C14        -6.4160    2.6930   -1.6000 c         1 MOL      0.446789
     41 O6         -7.3350    2.5530   -2.3760 o         1 MOL     -0.550886
     42 C15        -4.5690    3.5280   -3.2590 c3        1 MOL     -0.257455
     43 C16        -3.6570    2.2380   -3.3980 c         1 MOL      0.797491
     44 O7         -2.7940    2.1900   -4.3060 o         1 MOL     -0.713542
     45 O8         -3.7080    1.3430   -2.5490 o         1 MOL     -0.713542
     46 H19        -3.6310    2.8750   -0.8700 hn        1 MOL      0.279667
     47 H20        -5.7990    4.6670   -1.8890 h1        1 MOL      0.073359
     48 H21        -3.9370    4.3940   -3.4470 hc        1 MOL      0.053553
     49 H22        -5.2760    3.3860   -4.0790 hc        1 MOL      0.053553
     50 N4         -6.3290    2.0880   -0.4440 n         1 MOL     -0.188197
     51 C17        -7.5320    1.5440    0.2270 c3        1 MOL     -0.430367
     52 C18        -7.9780    0.0860   -0.1530 c         1 MOL      0.642829
     53 O9         -9.1220   -0.2920    0.0430 o         1 MOL     -0.644789
     54 H23        -5.4590    2.1650    0.0670 hn        1 MOL      0.227956
     55 H24        -8.3990    2.1420   -0.0500 h1        1 MOL      0.161989
     56 H25        -7.4150    1.5560    1.3030 h1        1 MOL      0.161989
     57 N5         -7.1060   -0.6600   -0.7400 n         1 MOL     -0.173504
     58 C19        -7.2670   -2.0760   -1.2450 c3        1 MOL     -0.156688
     59 C20        -7.0600   -3.1940   -0.2360 c         1 MOL      0.432481
     60 O10        -7.3180   -4.4100   -0.5040 o         1 MOL     -0.566232
     61 C21        -6.2930   -2.2170   -2.5060 c3        1 MOL     -0.051770
     62 C22        -4.8520   -2.0670   -2.1180 c         1 MOL      0.763321
     63 O11        -3.9630   -1.7960   -3.0190 o         1 MOL     -0.764601
     64 O12        -4.5440   -2.1270   -0.9110 o         1 MOL     -0.764601
     65 H26        -6.1680   -0.2950   -0.6730 hn        1 MOL      0.079382
     66 H27        -8.2860   -2.0600   -1.6430 h1        1 MOL      0.118501
     67 H28        -6.4340   -1.5680   -3.3760 hc        1 MOL      0.023814
     68 H29        -6.3830   -3.2380   -2.8770 hc        1 MOL      0.023814
     69 N6         -6.6150   -2.8650    0.9690 n         1 MOL     -0.106278
     70 C23        -6.3580   -3.8140    2.0270 c3        1 MOL     -0.072757
     71 C24        -4.9620   -4.4510    1.9370 c         1 MOL      0.545027
     72 O13        -4.7750   -5.5180    2.4360 o         1 MOL     -0.614717
     73 H30        -6.5120   -1.8990    1.2140 hn        1 MOL      0.196902
     74 H31        -7.1050   -4.6050    2.0690 h1        1 MOL      0.038556
     75 H32        -6.4580   -3.1740    2.9000 h1        1 MOL      0.038556
     76 N7         -3.9510   -3.9320    1.2830 n         1 MOL     -0.093586
     77 C25        -2.5820   -4.4310    1.1830 c3        1 MOL     -0.064417
     78 C26        -1.6040   -3.1960    1.2430 c         1 MOL      0.503062
     79 O14        -1.9930   -2.0080    1.0030 o         1 MOL     -0.572686
     80 C27        -2.3330   -5.5480    0.1610 c3        1 MOL      0.009051
     81 C28        -2.4860   -5.1200   -1.2380 c3        1 MOL     -0.240485
     82 C29        -1.4580   -4.1630   -1.8400 c         1 MOL      0.497700
     83 N8         -0.4230   -4.5400   -2.6130 n         1 MOL     -0.713740
     84 O15        -1.5940   -2.9830   -1.6660 o         1 MOL     -0.428625
     85 H33        -4.0830   -3.0390    0.8380 hn        1 MOL      0.119337
     86 H34        -2.4150   -4.8960    2.1600 h1        1 MOL      0.026653
     87 H35        -3.0120   -6.3910    0.3030 hc        1 MOL      0.021922
     88 H36        -1.3560   -5.9720    0.3590 hc        1 MOL      0.021922
     89 H37        -3.5150   -4.7900   -1.3390 hc        1 MOL      0.100252
     90 H38        -2.4050   -6.0020   -1.8880 hc        1 MOL      0.100252
     91 H39        -0.1500   -5.5050   -2.7200 hn        1 MOL      0.326864
     92 H40         0.2170   -3.8010   -2.8810 hn        1 MOL      0.326864
     93 N9         -0.3630   -3.5280    1.6440 n         1 MOL     -0.374245
     94 C30         0.8130   -2.6180    1.8760 c3        1 MOL     -0.013861
     95 C31         2.0150   -2.9530    1.0040 c         1 MOL      0.485189
     96 O16         2.7490   -3.9090    1.2670 o         1 MOL     -0.564366
     97 C32         1.0630   -2.5260    3.4490 c3        1 MOL      0.106953
     98 C33         2.0510   -1.4070    3.7290 c3        1 MOL     -0.155551
     99 C34        -0.0820   -2.2660    4.4470 c3        1 MOL     -0.155551
    100 H41        -0.2740   -4.5380    1.6490 hn        1 MOL      0.275116
    101 H42         0.4650   -1.6250    1.5770 h1        1 MOL      0.123396
    102 H43         1.5190   -3.4510    3.8040 hc        1 MOL     -0.007023
    103 H44         1.5300   -0.4550    3.8470 hc        1 MOL      0.033766
    104 H45         2.5340   -1.5920    4.6850 hc        1 MOL      0.033766
    105 H46         2.8720   -1.2240    3.0330 hc        1 MOL      0.033766
    106 H47        -0.6160   -1.3560    4.1730 hc        1 MOL      0.033766
    107 H48        -0.7900   -3.0910    4.4720 hc        1 MOL      0.033766
    108 H49         0.3050   -2.1140    5.4590 hc        1 MOL      0.033766
    109 N10         2.1420   -2.3710   -0.1750 n         1 MOL     -0.295129
    110 C35         3.3590   -2.5420   -1.0180 c3        1 MOL      0.004877
    111 C36         4.5950   -2.0830   -0.2580 c         1 MOL      0.554346
    112 O17         4.4790   -1.2650    0.6750 o         1 MOL     -0.426862
    113 C37         3.1970   -1.8230   -2.3400 c3        1 MOL     -0.294676
    114 C38         2.1130   -2.2940   -3.2020 c         1 MOL      0.845302
    115 N11         0.8730   -1.8240   -3.0340 n         1 MOL     -0.872198
    116 O18         2.2920   -3.0290   -4.1470 o         1 MOL     -0.626920
    117 H50         1.5140   -1.6110   -0.4270 hn        1 MOL      0.175877
    118 H51         3.5040   -3.5960   -1.2640 h1        1 MOL      0.084292
    119 H52         4.0670   -1.8560   -3.0010 hc        1 MOL      0.028768
    120 H53         3.1090   -0.7470   -2.1400 hc        1 MOL      0.028768
    121 H54         0.7110   -1.1510   -2.3060 hn        1 MOL      0.399062
    122 H55         0.1530   -2.0640   -3.7020 hn        1 MOL      0.399062
    123 N12         5.8100   -2.2830   -0.7620 n         1 MOL     -0.673061
    124 C39         7.0430   -1.6220   -0.3570 c3        1 MOL      0.357651
    125 C40         6.9140   -0.0970   -0.5160 c         1 MOL      0.518790
    126 O19         7.1980    0.6270    0.4540 o         1 MOL     -0.459740
    127 C41         8.2540   -2.2330   -1.1090 c3        1 MOL     -0.076512
    128 C42         9.5490   -1.7400   -0.4610 ca        1 MOL      0.023999
    129 C43         9.7230   -2.0110    0.8990 ca        1 MOL     -0.211020
    130 C44        10.4690   -0.9210   -1.1390 ca        1 MOL     -0.211020
    131 C45        10.8500   -1.4660    1.5640 ca        1 MOL     -0.216601
    132 C46        11.6170   -0.4240   -0.4800 ca        1 MOL     -0.216601
    133 C47        11.8380   -0.7270    0.8680 ca        1 MOL      0.311429
    134 O20        12.8870   -0.2770    1.5120 oh        1 MOL     -0.469227
    135 H56         5.8960   -3.0630   -1.4080 hn        1 MOL      0.307557
    136 H57         7.1760   -1.8610    0.6980 h1        1 MOL      0.042441
    137 H58         8.1700   -1.9150   -2.1490 hc        1 MOL      0.023263
    138 H59         8.2030   -3.3200   -1.0410 hc        1 MOL      0.023263
    139 H60         8.9590   -2.6140    1.3680 ha        1 MOL      0.150277
    140 H61        10.2500   -0.5970   -2.1500 ha        1 MOL      0.150277
    141 H62        11.0590   -1.5090    2.6150 ha        1 MOL      0.132784
    142 H63        12.3010    0.2370   -0.9860 ha        1 MOL      0.132784
    143 H64        13.6030   -0.0140    0.9170 ho        1 MOL      0.353963
    144 N13         6.4190    0.4370   -1.6520 n         1 MOL     -0.538442
    145 C48         6.1060    1.9170   -1.6990 c3        1 MOL      0.072343
    146 C49         5.2560    2.4780   -0.5480 c         1 MOL      0.357903
    147 O21         5.4170    3.6530   -0.1200 o         1 MOL     -0.542146
    148 C50         5.6010    2.3030   -3.1010 c3        1 MOL     -0.125407
    149 C51         4.2180    1.8380   -3.4610 c3        1 MOL     -0.175609
    150 C52         3.8900    2.3690   -4.9080 c         1 MOL      0.699650
    151 O22         4.1180    1.6140   -5.9330 o         1 MOL     -0.714928
    152 O23         3.3890    3.4710   -4.9680 o         1 MOL     -0.714928
    153 H65         6.1840   -0.0890   -2.4780 hn        1 MOL      0.378095
    154 H66         6.9930    2.5470   -1.6160 h1        1 MOL      0.050969
    155 H67         6.2650    1.8300   -3.8280 hc        1 MOL      0.047012
    156 H68         5.5560    3.3850   -3.2220 hc        1 MOL      0.047012
    157 H69         3.5330    2.2470   -2.7200 hc        1 MOL      0.027349
    158 H70         4.2320    0.7530   -3.4270 hc        1 MOL      0.027349
    159 N14         4.3880    1.7010    0.0490 n         1 MOL     -0.106060
    160 C53         3.5530    2.2060    1.1670 c3        1 MOL     -0.034387
    161 C54         4.2380    2.0010    2.6330 c         1 MOL      0.350620
    162 O24         3.9090    2.6460    3.6800 o         1 MOL     -0.524546
    163 C55         2.1270    1.6240    1.0790 c3        1 MOL      0.229268
    164 C56         1.3200    1.9760   -0.2520 c3        1 MOL     -0.152919
    165 C57         0.0600    1.1840   -0.4930 c         1 MOL      0.768043
    166 O25        -1.1040    1.6240   -0.2650 o         1 MOL     -0.759787
    167 O26         0.0810   -0.0730   -0.8090 o         1 MOL     -0.759787
    168 H71         4.3390    0.7140   -0.1800 hn        1 MOL      0.208886
    169 H72         3.5140    3.2980    1.0740 h1        1 MOL      0.118282
    170 H73         1.6470    1.9820    1.9840 hc        1 MOL     -0.024233
    171 H74         2.0810    0.5300    1.0570 hc        1 MOL     -0.024233
    172 H75         1.9040    1.8280   -1.1540 hc        1 MOL      0.049676
    173 H76         1.0550    3.0340   -0.1640 hc        1 MOL      0.049676
    174 N15         5.2810    1.1470    2.6310 n         1 MOL      0.036755
    175 C58         6.0240    0.6950    3.8580 c3        1 MOL     -0.280367
    176 H77         5.3260    0.2350    4.5570 h1        1 MOL      0.100993
    177 H78         6.7860   -0.0300    3.5750 h1        1 MOL      0.100993
    178 H79         6.4990    1.5540    4.3330 h1        1 MOL      0.100993
    179 H80         5.5660    0.7230    1.7600 hn        1 MOL     -0.056990
    180 Ca1        -2.5650   -0.3920   -1.2370 Ca        1 MOL      1.760838
    181 O27        -1.2220    0.2780   -3.4120 oh        1 MOL     -0.969835
    182 H81        -0.3850    0.6250   -3.7120 ho        1 MOL      0.451798
    183 H82        -1.8860    0.7640   -3.8900 ho        1 MOL      0.451798
@<TRIPOS>BOND
     1    1    2 1   
     2    1    4 1   
     3    1    5 1   
     4    1    6 1   
     5    2    3 2   
     6    2    7 1   
     7    7    8 1   
     8    7   15 1   
     9    8    9 1   
    10    8   11 1   
    11    8   16 1   
    12    9   10 2   
    13    9   19 1   
    14   11   12 1   
    15   11   17 1   
    16   11   18 1   
    17   12   13 1   
    18   12   14 1   
    19   19   20 1   
    20   19   27 1   
    21   20   21 1   
    22   20   23 1   
    23   20   28 1   
    24   21   22 2   
    25   21   38 1   
    26   23   24 1   
    27   23   25 1   
    28   23   29 1   
    29   24   26 1   
    30   24   30 1   
    31   24   31 1   
    32   25   32 1   
    33   25   33 1   
    34   25   34 1   
    35   26   35 1   
    36   26   36 1   
    37   26   37 1   
    38   38   39 1   
    39   38   46 1   
    40   39   40 1   
    41   39   42 1   
    42   39   47 1   
    43   40   41 2   
    44   40   50 1   
    45   42   43 1   
    46   42   48 1   
    47   42   49 1   
    48   43   44 1   
    49   43   45 1   
    50   50   51 1   
    51   50   54 1   
    52   51   52 1   
    53   51   55 1   
    54   51   56 1   
    55   52   53 2   
    56   52   57 1   
    57   57   58 1   
    58   57   65 1   
    59   58   59 1   
    60   58   61 1   
    61   58   66 1   
    62   59   60 2   
    63   59   69 1   
    64   61   62 1   
    65   61   67 1   
    66   61   68 1   
    67   62   63 1   
    68   62   64 1   
    69   69   70 1   
    70   69   73 1   
    71   70   71 1   
    72   70   74 1   
    73   70   75 1   
    74   71   72 2   
    75   71   76 1   
    76   76   77 1   
    77   76   85 1   
    78   77   78 1   
    79   77   80 1   
    80   77   86 1   
    81   78   79 2   
    82   78   93 1   
    83   80   81 1   
    84   80   87 1   
    85   80   88 1   
    86   81   82 1   
    87   81   89 1   
    88   81   90 1   
    89   82   83 1   
    90   82   84 2   
    91   83   91 1   
    92   83   92 1   
    93   93   94 1   
    94   93  100 1   
    95   94   95 1   
    96   94   97 1   
    97   94  101 1   
    98   95   96 2   
    99   95  109 1   
   100   97   98 1   
   101   97   99 1   
   102   97  102 1   
   103   98  103 1   
   104   98  104 1   
   105   98  105 1   
   106   99  106 1   
   107   99  107 1   
   108   99  108 1   
   109  109  110 1   
   110  109  117 1   
   111  110  111 1   
   112  110  113 1   
   113  110  118 1   
   114  111  112 2   
   115  111  123 1   
   116  113  114 1   
   117  113  119 1   
   118  113  120 1   
   119  114  115 1   
   120  114  116 2   
   121  115  121 1   
   122  115  122 1   
   123  123  124 1   
   124  123  135 1   
   125  124  125 1   
   126  124  127 1   
   127  124  136 1   
   128  125  126 2   
   129  125  144 1   
   130  127  128 1   
   131  127  137 1   
   132  127  138 1   
   133  128  129 ar  
   134  128  130 ar  
   135  129  131 ar  
   136  129  139 1   
   137  130  132 ar  
   138  130  140 1   
   139  131  133 ar  
   140  131  141 1   
   141  132  133 ar  
   142  132  142 1   
   143  133  134 1   
   144  134  143 1   
   145  144  145 1   
   146  144  153 1   
   147  145  146 1   
   148  145  148 1   
   149  145  154 1   
   150  146  147 2   
   151  146  159 1   
   152  148  149 1   
   153  148  155 1   
   154  148  156 1   
   155  149  150 1   
   156  149  157 1   
   157  149  158 1   
   158  150  151 1   
   159  150  152 1   
   160  159  160 1   
   161  159  168 1   
   162  160  161 1   
   163  160  163 1   
   164  160  169 1   
   165  161  162 2   
   166  161  174 1   
   167  163  164 1   
   168  163  170 1   
   169  163  171 1   
   170  164  165 1   
   171  164  172 1   
   172  164  173 1   
   173  165  166 1   
   174  165  167 1   
   175  174  175 1   
   176  174  179 1   
   177  175  176 1   
   178  175  177 1   
   179  175  178 1   
   180  181  182 1   
   181  181  183 1   
@<TRIPOS>SUBSTRUCTURE
     1 MOL         1 TEMP              0 ****  ****    0 ROOT
