@<TRIPOS>MOLECULE
MOL
  179   176     1     0     0
SMALL
resp


@<TRIPOS>ATOM
      1 C1          2.6680    2.1740    6.7930 c3        1 MOL     -0.356123
      2 C2          2.3620    1.9380    5.3210 c         1 MOL      0.734350
      3 O1          3.3090    1.6300    4.5670 o         1 MOL     -0.572006
      4 H1          2.0820    3.0190    7.1540 hc        1 MOL      0.090765
      5 H2          2.4110    1.2840    7.3650 hc        1 MOL      0.090765
      6 H3          3.7300    2.3900    6.9130 hc        1 MOL      0.090765
      7 N1          1.1970    2.3690    4.7980 n         1 MOL     -0.573163
      8 C3          0.8870    2.3920    3.3660 c3        1 MOL      0.092311
      9 C4          1.3350    3.6790    2.5720 c         1 MOL      0.557223
     10 O2          1.7340    4.6520    3.2380 o         1 MOL     -0.531951
     11 C5         -0.6300    2.1670    3.1960 c3        1 MOL     -0.030866
     12 C6         -0.9210    1.6070    1.7950 c         1 MOL      0.614855
     13 O3         -1.9990    1.8560    1.1850 o         1 MOL     -0.666821
     14 O4         -0.0350    1.0950    1.1350 o         1 MOL     -0.666821
     15 H4          0.5550    2.6420    5.5310 hn        1 MOL      0.289658
     16 H5          1.4000    1.5300    2.9350 h1        1 MOL      0.084460
     17 H6         -1.1970    3.0570    3.4600 hc        1 MOL      0.029770
     18 H7         -1.0070    1.3980    3.8610 hc        1 MOL      0.029770
     19 N2          1.2240    3.6260    1.2580 n         1 MOL     -0.469215
     20 C7          1.6630    4.6900    0.3330 c3        1 MOL     -0.002313
     21 C8          0.4970    5.4900   -0.2730 c         1 MOL      0.642909
     22 O5          0.7120    6.6830   -0.5370 o         1 MOL     -0.602837
     23 C9          2.6620    4.1450   -0.7120 c3        1 MOL      0.248663
     24 C10         3.2900    5.1480   -1.6030 c3        1 MOL     -0.155834
     25 C11         4.6650    4.8280   -2.1330 c3        1 MOL      0.003165
     26 C12         5.3450    6.0590   -2.8420 c3        1 MOL      0.012196
     27 N3          6.4370    5.6330   -3.8340 n4        1 MOL     -0.352187
     28 H8          0.9290    2.7380    0.8700 hn        1 MOL      0.237355
     29 H9          2.1470    5.4390    0.9470 h1        1 MOL      0.064484
     30 H10         2.0910    3.4930   -1.3720 hc        1 MOL      0.027981
     31 H11         3.3970    3.5910   -0.1310 hc        1 MOL      0.027981
     32 H12         3.3110    6.1060   -1.0690 hc        1 MOL      0.018655
     33 H13         2.5840    5.2530   -2.4310 hc        1 MOL      0.018655
     34 H14         4.5760    3.9820   -2.8060 hc        1 MOL      0.030804
     35 H15         5.3190    4.5450   -1.3040 hc        1 MOL      0.030804
     36 H16         5.6260    6.7970   -2.0880 hx        1 MOL      0.102365
     37 H17         4.6040    6.5300   -3.4990 hx        1 MOL      0.102365
     38 H18         6.0240    5.1010   -4.5810 hn        1 MOL      0.325967
     39 H19         7.0070    6.4190   -4.1280 hn        1 MOL      0.325967
     40 H20         6.9270    4.9190   -3.3120 hn        1 MOL      0.325967
     41 N4         -0.6480    4.8480   -0.4420 n         1 MOL     -0.504390
     42 C13        -1.8010    5.4310   -1.0920 c3        1 MOL      0.128279
     43 C14        -3.1060    5.1510   -0.2910 c         1 MOL      0.376419
     44 O6         -4.1730    5.7460   -0.5880 o         1 MOL     -0.554370
     45 C15        -2.0060    4.8370   -2.5140 c3        1 MOL     -0.272598
     46 C16        -2.1020    3.3480   -2.5540 c         1 MOL      0.866246
     47 O7         -2.2940    2.7820   -3.6120 o         1 MOL     -0.739355
     48 O8         -1.9730    2.6660   -1.5060 o         1 MOL     -0.739355
     49 H21        -0.6660    3.8680   -0.2260 hn        1 MOL      0.262235
     50 H22        -1.6850    6.4960   -1.2730 h1        1 MOL      0.099381
     51 H23        -1.2090    5.2140   -3.1550 hc        1 MOL      0.080070
     52 H24        -2.9110    5.2630   -2.9450 hc        1 MOL      0.080070
     53 N5         -3.1860    4.2040    0.6640 n         1 MOL     -0.097773
     54 C17        -4.4090    4.0710    1.4610 c3        1 MOL     -0.311425
     55 C18        -5.4670    3.2190    0.7310 c         1 MOL      0.608341
     56 O9         -6.5750    3.1780    1.2160 o         1 MOL     -0.599814
     57 H25        -2.4860    3.4840    0.8160 hn        1 MOL      0.061664
     58 H26        -4.8640    5.0370    1.6460 h1        1 MOL      0.144127
     59 H27        -4.1520    3.5330    2.3760 h1        1 MOL      0.144127
     60 N6         -5.2240    2.6440   -0.4330 n         1 MOL     -0.140486
     61 C19        -6.2200    2.0070   -1.2560 c3        1 MOL     -0.088822
     62 C20        -6.7290    0.6570   -0.7080 c         1 MOL      0.405690
     63 O10        -7.6710    0.1320   -1.2380 o         1 MOL     -0.488360
     64 C21        -5.5440    1.7560   -2.5960 c3        1 MOL     -0.156704
     65 C22        -4.6400    0.4860   -2.7010 c         1 MOL      0.788117
     66 N7         -4.6470   -0.3030   -3.7400 n         1 MOL     -0.790118
     67 O11        -3.9270    0.1910   -1.7930 o         1 MOL     -0.692670
     68 H28        -4.3000    2.5980   -0.8360 hn        1 MOL      0.152978
     69 H29        -6.9700    2.7640   -1.4980 h1        1 MOL      0.151523
     70 H30        -4.8780    2.5840   -2.8220 hc        1 MOL      0.053266
     71 H31        -6.3380    1.6150   -3.3320 hc        1 MOL      0.053266
     72 H32        -5.2330   -0.1720   -4.5490 hn        1 MOL      0.365684
     73 H33        -4.0950   -1.1350   -3.6000 hn        1 MOL      0.365684
     74 N8         -6.3460    0.1980    0.5080 n         1 MOL     -0.219863
     75 C23        -6.9820   -0.8840    1.3470 c3        1 MOL     -0.131584
     76 C24        -5.9960   -1.9820    1.7960 c         1 MOL      0.425981
     77 O12        -6.4320   -2.9690    2.4210 o         1 MOL     -0.518564
     78 H34        -5.5150    0.6020    0.9130 hn        1 MOL      0.200939
     79 H35        -7.8360   -1.3330    0.8440 h1        1 MOL      0.130362
     80 H36        -7.4130   -0.4900    2.2750 h1        1 MOL      0.130362
     81 N9         -4.8080   -1.9520    1.1390 n         1 MOL     -0.381992
     82 C25        -3.7890   -2.9770    1.1250 c3        1 MOL      0.503317
     83 C26        -2.3660   -2.3400    1.2050 c         1 MOL      0.240961
     84 O13        -2.1250   -1.1740    1.0320 o         1 MOL     -0.566042
     85 C27        -4.0220   -3.7790   -0.1580 c3        1 MOL      0.033920
     86 C28        -5.4090   -4.3260   -0.4050 ca        1 MOL     -0.064601
     87 C29        -6.3920   -3.4260   -0.9590 ca        1 MOL     -0.122859
     88 C30        -5.7260   -5.6630   -0.1840 ca        1 MOL     -0.122859
     89 C31        -7.7000   -3.8700   -1.2370 ca        1 MOL     -0.330535
     90 C32        -7.0810   -6.1500   -0.2400 ca        1 MOL     -0.330535
     91 C33        -8.0040   -5.1740   -0.7350 ca        1 MOL      0.455920
     92 O14        -9.2310   -5.5790   -1.0020 oh        1 MOL     -0.486268
     93 H37        -4.5700   -1.1460    0.5940 hn        1 MOL      0.196881
     94 H38        -3.8850   -3.6300    2.0020 h1        1 MOL     -0.025779
     95 H39        -3.3370   -4.6250   -0.0760 hc        1 MOL     -0.021348
     96 H40        -3.7180   -3.1740   -1.0100 hc        1 MOL     -0.021348
     97 H41        -6.1560   -2.3840   -1.1350 ha        1 MOL      0.122704
     98 H42        -4.9390   -6.3200    0.1450 ha        1 MOL      0.122704
     99 H43        -8.3790   -3.1940   -1.7370 ha        1 MOL      0.174024
    100 H44        -7.3660   -7.1760   -0.0510 ha        1 MOL      0.174024
    101 H45        -9.2580   -6.5410   -0.9540 ho        1 MOL      0.343599
    102 N10        -1.3200   -3.1040    1.5120 n         1 MOL     -0.459137
    103 C34         0.0390   -2.7160    1.5520 c3        1 MOL      0.039439
    104 C35         0.8320   -3.7460    0.7700 c         1 MOL      0.435679
    105 O15         0.6170   -4.9830    0.9370 o         1 MOL     -0.570501
    106 C36         0.5770   -2.4030    2.9790 c3        1 MOL      0.084220
    107 C37        -0.2920   -1.3980    3.7700 c3        1 MOL      0.115665
    108 C38         2.0640   -1.9940    2.9810 c3        1 MOL     -0.284975
    109 C39         0.3160   -1.1310    5.1400 c3        1 MOL     -0.577228
    110 H46        -1.5150   -4.0610    1.7860 hn        1 MOL      0.294186
    111 H47         0.1410   -1.7420    1.0730 h1        1 MOL      0.086953
    112 H48         0.5510   -3.3260    3.5660 hc        1 MOL      0.004200
    113 H49        -1.3110   -1.7560    3.9140 hc        1 MOL      0.043969
    114 H50        -0.3440   -0.4470    3.2290 hc        1 MOL      0.043969
    115 H51         2.4290   -2.0620    4.0020 hc        1 MOL      0.066233
    116 H52         2.7350   -2.6210    2.3900 hc        1 MOL      0.066233
    117 H53         2.0740   -0.9920    2.5520 hc        1 MOL      0.066233
    118 H54         0.4850   -2.1270    5.5560 hc        1 MOL      0.138424
    119 H55         1.2840   -0.6440    5.2310 hc        1 MOL      0.138424
    120 H56        -0.5400   -0.7310    5.6880 hc        1 MOL      0.138424
    121 N11         1.8070   -3.3340   -0.0200 n         1 MOL     -0.158882
    122 C40         2.5770   -4.2320   -0.7890 c3        1 MOL      0.036733
    123 C41         4.0680   -4.1980   -0.4990 c         1 MOL      0.290804
    124 O16         4.5190   -3.2870    0.2020 o         1 MOL     -0.332987
    125 C42         2.4660   -3.8940   -2.2630 c3        1 MOL      0.187501
    126 O17         1.1740   -3.2770   -2.7100 oh        1 MOL     -0.582807
    127 H57         1.9520   -2.3700   -0.2850 hn        1 MOL      0.319425
    128 H58         2.1570   -5.2390   -0.7700 h1        1 MOL      0.072354
    129 H59         2.6580   -4.7990   -2.8360 h1        1 MOL      0.006971
    130 H60         3.2380   -3.1550   -2.5010 h1        1 MOL      0.006971
    131 H61         1.0970   -2.4500   -2.2240 ho        1 MOL      0.332788
    132 N12         4.9000   -5.1510   -0.9730 n         1 MOL     -0.436482
    133 C43         6.3170   -5.1920   -0.5700 c3        1 MOL      0.224531
    134 C44         7.2170   -3.9510   -0.9190 c         1 MOL      0.351201
    135 O18         7.9050   -3.4300   -0.0260 o         1 MOL     -0.489524
    136 C45         6.8460   -6.4880   -1.1560 c3        1 MOL     -0.522090
    137 H62         4.5370   -5.9190   -1.5210 hn        1 MOL      0.291694
    138 H63         6.2800   -5.3720    0.5050 h1        1 MOL      0.091403
    139 H64         6.3750   -7.3160   -0.6110 hc        1 MOL      0.148306
    140 H65         6.5360   -6.6580   -2.1780 hc        1 MOL      0.148306
    141 H66         7.9350   -6.4550   -1.0790 hc        1 MOL      0.148306
    142 N13         6.9850   -3.3140   -2.0650 n         1 MOL     -0.230836
    143 C46         7.6750   -2.0660   -2.4050 c3        1 MOL      0.097916
    144 C47         7.2090   -0.8320   -1.4660 c         1 MOL      0.399906
    145 O19         8.0090    0.1030   -1.2330 o         1 MOL     -0.514880
    146 C48         7.3390   -1.7700   -3.8800 c3        1 MOL     -0.235282
    147 H67         6.4280   -3.7890   -2.7610 hn        1 MOL      0.191483
    148 H68         8.7590   -2.1320   -2.3490 h1        1 MOL      0.086510
    149 H69         6.2670   -1.6420   -4.0070 hc        1 MOL      0.065683
    150 H70         7.8250   -0.8300   -4.1670 hc        1 MOL      0.065683
    151 H71         7.7270   -2.5800   -4.4900 hc        1 MOL      0.065683
    152 N14         5.9560   -0.8630   -0.9440 n         1 MOL     -0.249401
    153 C49         5.4470    0.2400   -0.0910 c3        1 MOL     -0.050866
    154 C50         5.8650    0.0560    1.3930 c         1 MOL      0.522936
    155 O20         6.2120    1.0280    2.0280 o         1 MOL     -0.528589
    156 C51         3.8740    0.3490   -0.1230 c3        1 MOL      0.182264
    157 C52         3.2640    0.3900   -1.5480 c3        1 MOL     -0.298193
    158 C53         1.7800    0.2160   -1.4670 c         1 MOL      0.761931
    159 O21         1.2830   -0.8700   -1.0740 o         1 MOL     -0.722519
    160 O22         1.0480    1.1370   -1.8420 o         1 MOL     -0.722519
    161 H72         5.3330   -1.6370   -1.1190 hn        1 MOL      0.185187
    162 H73         5.7800    1.2200   -0.4440 h1        1 MOL      0.047661
    163 H74         3.5840    1.2370    0.4340 hc        1 MOL     -0.059428
    164 H75         3.5110   -0.5430    0.3940 hc        1 MOL     -0.059428
    165 H76         3.6070   -0.4390   -2.1650 hc        1 MOL      0.037402
    166 H77         3.4860    1.3770   -1.9280 hc        1 MOL      0.037402
    167 N15         5.8380   -1.1990    1.9060 n         1 MOL     -0.169939
    168 C54         6.4420   -1.5390    3.2140 c3        1 MOL     -0.179847
    169 H78         5.6510   -1.6880    3.9500 h1        1 MOL      0.089896
    170 H79         7.0260   -2.4540    3.1190 h1        1 MOL      0.089896
    171 H80         7.0900   -0.7250    3.5380 h1        1 MOL      0.089896
    172 H81         5.6260   -1.9830    1.3100 hn        1 MOL      0.126827
    173 Ca1        -1.1930    0.2520   -0.9080 Ca        1 MOL      1.759017
    174 O23        -1.4990   -2.1200   -1.8120 oh        1 MOL     -0.853356
    175 H82        -1.8130   -2.0890   -2.7050 ho        1 MOL      0.406761
    176 H83        -1.2750   -3.0390   -1.6630 ho        1 MOL      0.406761
    177 O24        -1.6700    0.2410   -3.6110 oh        1 MOL     -0.853356
    178 H84        -2.0950    1.1030   -3.6790 ho        1 MOL      0.406761
    179 H85        -1.7790   -0.1530   -4.4740 ho        1 MOL      0.406761
@<TRIPOS>BOND
     1    1    2 1   
     2    1    4 1   
     3    1    5 1   
     4    1    6 1   
     5    2    3 2   
     6    2    7 1   
     7    7    8 1   
     8    7   15 1   
     9    8    9 1   
    10    8   11 1   
    11    8   16 1   
    12    9   10 2   
    13    9   19 1   
    14   11   12 1   
    15   11   17 1   
    16   11   18 1   
    17   12   13 1   
    18   12   14 1   
    19   19   20 1   
    20   19   28 1   
    21   20   21 1   
    22   20   23 1   
    23   20   29 1   
    24   21   22 2   
    25   21   41 1   
    26   23   24 1   
    27   23   30 1   
    28   23   31 1   
    29   24   25 1   
    30   24   32 1   
    31   24   33 1   
    32   25   26 1   
    33   25   34 1   
    34   25   35 1   
    35   26   27 1   
    36   26   36 1   
    37   26   37 1   
    38   27   38 1   
    39   27   39 1   
    40   27   40 1   
    41   41   42 1   
    42   41   49 1   
    43   42   43 1   
    44   42   45 1   
    45   42   50 1   
    46   43   44 2   
    47   43   53 1   
    48   45   46 1   
    49   45   51 1   
    50   45   52 1   
    51   46   47 1   
    52   46   48 1   
    53   53   54 1   
    54   53   57 1   
    55   54   55 1   
    56   54   58 1   
    57   54   59 1   
    58   55   56 2   
    59   55   60 1   
    60   60   61 1   
    61   60   68 1   
    62   61   62 1   
    63   61   64 1   
    64   61   69 1   
    65   62   63 2   
    66   62   74 1   
    67   64   65 1   
    68   64   70 1   
    69   64   71 1   
    70   65   66 1   
    71   65   67 2   
    72   66   72 1   
    73   66   73 1   
    74   74   75 1   
    75   74   78 1   
    76   75   76 1   
    77   75   79 1   
    78   75   80 1   
    79   76   77 2   
    80   76   81 1   
    81   81   82 1   
    82   81   93 1   
    83   82   83 1   
    84   82   85 1   
    85   82   94 1   
    86   83   84 2   
    87   83  102 1   
    88   85   86 1   
    89   85   95 1   
    90   85   96 1   
    91   86   87 ar  
    92   86   88 ar  
    93   87   89 ar  
    94   87   97 1   
    95   88   90 ar  
    96   88   98 1   
    97   89   91 ar  
    98   89   99 1   
    99   90   91 ar  
   100   90  100 1   
   101   91   92 1   
   102   92  101 1   
   103  102  103 1   
   104  102  110 1   
   105  103  104 1   
   106  103  106 1   
   107  103  111 1   
   108  104  105 2   
   109  104  121 1   
   110  106  107 1   
   111  106  108 1   
   112  106  112 1   
   113  107  109 1   
   114  107  113 1   
   115  107  114 1   
   116  108  115 1   
   117  108  116 1   
   118  108  117 1   
   119  109  118 1   
   120  109  119 1   
   121  109  120 1   
   122  121  122 1   
   123  121  127 1   
   124  122  123 1   
   125  122  125 1   
   126  122  128 1   
   127  123  124 2   
   128  123  132 1   
   129  125  126 1   
   130  125  129 1   
   131  125  130 1   
   132  126  131 1   
   133  132  133 1   
   134  132  137 1   
   135  133  134 1   
   136  133  136 1   
   137  133  138 1   
   138  134  135 2   
   139  134  142 1   
   140  136  139 1   
   141  136  140 1   
   142  136  141 1   
   143  142  143 1   
   144  142  147 1   
   145  143  144 1   
   146  143  146 1   
   147  143  148 1   
   148  144  145 2   
   149  144  152 1   
   150  146  149 1   
   151  146  150 1   
   152  146  151 1   
   153  152  153 1   
   154  152  161 1   
   155  153  154 1   
   156  153  156 1   
   157  153  162 1   
   158  154  155 2   
   159  154  167 1   
   160  156  157 1   
   161  156  163 1   
   162  156  164 1   
   163  157  158 1   
   164  157  165 1   
   165  157  166 1   
   166  158  159 1   
   167  158  160 1   
   168  167  168 1   
   169  167  172 1   
   170  168  169 1   
   171  168  170 1   
   172  168  171 1   
   173  174  175 1   
   174  174  176 1   
   175  177  178 1   
   176  177  179 1   
@<TRIPOS>SUBSTRUCTURE
     1 MOL         1 TEMP              0 ****  ****    0 ROOT
