@<TRIPOS>MOLECULE
MOL
  189   185     1     0     0
SMALL
resp


@<TRIPOS>ATOM
      1 C1          0.2170    2.8280   -4.9900 c3        1 MOL     -0.282817
      2 C2          0.5260    2.4460   -3.5350 c         1 MOL      0.635812
      3 O1         -0.1340    2.6790   -2.5140 o         1 MOL     -0.603135
      4 H1         -0.6220    2.2330   -5.3510 hc        1 MOL      0.073550
      5 H2         -0.0400    3.8860   -5.0430 hc        1 MOL      0.073550
      6 H3          1.0920    2.6350   -5.6110 hc        1 MOL      0.073550
      7 N1          1.6410    1.7690   -3.4660 n         1 MOL     -0.383163
      8 C3          2.1720    1.3870   -2.1660 c3        1 MOL      0.082364
      9 C4          2.7920    2.6530   -1.5950 c         1 MOL      0.365611
     10 O2          3.8630    3.0490   -2.0460 o         1 MOL     -0.506065
     11 C5          3.0990    0.1950   -2.3330 c3        1 MOL     -0.317797
     12 C6          4.0720   -0.1390   -1.2630 c         1 MOL      0.761679
     13 O3          3.6680   -0.2550   -0.0570 o         1 MOL     -0.616827
     14 O4          5.2440   -0.3580   -1.6620 o         1 MOL     -0.616827
     15 H4          2.3000    1.9590   -4.2010 hn        1 MOL      0.292324
     16 H5          1.3470    1.1240   -1.4980 h1        1 MOL      0.058678
     17 H6          3.7010    0.2960   -3.2370 hc        1 MOL      0.054446
     18 H7          2.4200   -0.6410   -2.5450 hc        1 MOL      0.054446
     19 N2          2.0110    3.4270   -0.7340 n         1 MOL     -0.212030
     20 C7          2.4830    4.7600   -0.3360 c3        1 MOL     -0.124100
     21 C8          3.4020    4.7950    0.8400 c         1 MOL      0.507472
     22 O5          4.1010    5.7230    1.0610 o         1 MOL     -0.600279
     23 C9          1.3110    5.7230   -0.1880 c3        1 MOL     -0.009255
     24 C10         0.6980    6.2750   -1.4810 c3        1 MOL      0.072189
     25 C11         1.6890    6.8230   -2.4920 c3        1 MOL     -0.114254
     26 C12         2.8470    7.6960   -2.0080 c3        1 MOL      0.191172
     27 N3          3.5530    8.2810   -3.1400 n4        1 MOL     -0.305375
     28 H8          1.1560    3.0170   -0.3620 hn        1 MOL      0.291232
     29 H9          3.1260    5.1820   -1.1080 h1        1 MOL      0.106879
     30 H10         1.6140    6.6050    0.3710 hc        1 MOL      0.014546
     31 H11         0.5390    5.2840    0.4530 hc        1 MOL      0.014546
     32 H12         0.0210    7.1020   -1.2670 hc        1 MOL      0.018661
     33 H13         0.0290    5.6380   -2.0560 hc        1 MOL      0.018661
     34 H14         1.1310    7.3930   -3.2280 hc        1 MOL      0.022029
     35 H15         2.1050    5.9740   -3.0400 hc        1 MOL      0.022029
     36 H16         3.5290    7.0960   -1.4060 hx        1 MOL      0.023543
     37 H17         2.4570    8.5170   -1.4100 hx        1 MOL      0.023543
     38 H18         3.0320    9.0120   -3.6020 hn        1 MOL      0.306379
     39 H19         4.3390    8.8100   -2.7880 hn        1 MOL      0.306379
     40 H20         3.9900    7.6780   -3.8260 hn        1 MOL      0.306379
     41 N4          3.4890    3.6990    1.5780 n         1 MOL     -0.144280
     42 C13         4.3470    3.5280    2.7430 c3        1 MOL      0.141538
     43 C14         5.5750    2.6180    2.4240 c         1 MOL      0.315901
     44 O6          6.6140    2.6670    3.1190 o         1 MOL     -0.502386
     45 C15         3.6760    3.0000    3.9530 c3        1 MOL     -0.286956
     46 C16         2.9640    1.7050    3.7680 c         1 MOL      0.868316
     47 O7          2.3440    1.1800    4.7490 o         1 MOL     -0.741192
     48 O8          2.8890    1.2030    2.6360 o         1 MOL     -0.741192
     49 H21         2.9580    2.8840    1.3120 hn        1 MOL      0.079199
     50 H22         4.7580    4.5050    3.0180 h1        1 MOL      0.065672
     51 H23         2.9530    3.7710    4.2390 hc        1 MOL      0.057871
     52 H24         4.4640    2.9490    4.7020 hc        1 MOL      0.057871
     53 N5          5.5500    1.8620    1.2770 n         1 MOL     -0.133825
     54 C17         6.7250    1.3080    0.6590 c3        1 MOL     -0.044091
     55 C18         7.2190   -0.0730    1.1400 c         1 MOL      0.424347
     56 O9          8.4110   -0.2580    1.4340 o         1 MOL     -0.562493
     57 H25         4.6380    1.8620    0.8410 hn        1 MOL      0.092456
     58 H26         7.5510    2.0140    0.6700 h1        1 MOL      0.066914
     59 H27         6.5030    1.3010   -0.4060 h1        1 MOL      0.066914
     60 N6          6.2590   -0.9740    1.3820 n         1 MOL     -0.137690
     61 C19         6.5240   -2.3620    1.9440 c3        1 MOL      0.094987
     62 C20         6.6170   -3.4140    0.8380 c         1 MOL      0.293517
     63 O10         7.2010   -4.4600    1.0430 o         1 MOL     -0.512913
     64 C21         5.5250   -2.8110    2.9600 c3        1 MOL     -0.332105
     65 C22         4.0480   -2.5940    2.6100 c         1 MOL      0.712318
     66 O11         3.6820   -2.7740    1.4280 o         1 MOL     -0.681344
     67 O12         3.1580   -2.0150    3.3180 o         1 MOL     -0.681344
     68 H28         5.3200   -0.7740    1.0710 hn        1 MOL      0.104549
     69 H29         7.4790   -2.2190    2.4510 h1        1 MOL      0.109462
     70 H30         5.7790   -2.2060    3.8330 hc        1 MOL      0.100008
     71 H31         5.7740   -3.8370    3.2390 hc        1 MOL      0.100008
     72 N7          6.1190   -3.1080   -0.3870 n         1 MOL     -0.040461
     73 C23         6.1640   -4.0410   -1.5400 c3        1 MOL     -0.113154
     74 C24         4.7480   -4.6300   -1.9010 c         1 MOL      0.566982
     75 O13         4.6920   -5.5780   -2.6790 o         1 MOL     -0.571405
     76 H32         5.6640   -2.2080   -0.5380 hn        1 MOL      0.056237
     77 H33         6.8240   -4.8810   -1.3540 h1        1 MOL      0.080865
     78 H34         6.5330   -3.4380   -2.3720 h1        1 MOL      0.080865
     79 N8          3.6640   -4.2220   -1.1800 n         1 MOL     -0.310349
     80 C25         2.2780   -4.7240   -1.4230 c3        1 MOL     -0.192480
     81 C26         1.2890   -3.5720   -1.4490 c         1 MOL      0.754561
     82 O14         1.4500   -2.5180   -0.7650 o         1 MOL     -0.727821
     83 C27         2.0160   -5.6740   -0.2890 c3        1 MOL      0.504814
     84 C28         2.6780   -7.0500   -0.3870 c3        1 MOL     -0.510722
     85 O15         2.3760   -5.2810    0.9650 oh        1 MOL     -0.619914
     86 H35         3.8370   -3.6120   -0.3960 hn        1 MOL      0.243122
     87 H36         2.0560   -5.3280   -2.3030 h1        1 MOL      0.099208
     88 H37         0.9570   -5.9300   -0.3260 h1        1 MOL     -0.017590
     89 H38         3.0600   -4.6280    0.8270 ho        1 MOL      0.416211
     90 H39         2.2980   -7.7110    0.4000 hc        1 MOL      0.124630
     91 H40         2.1960   -7.5850   -1.2100 hc        1 MOL      0.124630
     92 H41         3.7530   -6.9450   -0.4410 hc        1 MOL      0.124630
     93 N9          0.0950   -3.7260   -2.0830 n         1 MOL     -0.694023
     94 C29        -0.9620   -2.6800   -2.0810 c3        1 MOL      0.101879
     95 C30        -2.1950   -3.0690   -1.2340 c         1 MOL      0.494389
     96 O16        -2.6970   -4.1660   -1.4620 o         1 MOL     -0.558442
     97 C31        -1.2450   -2.3340   -3.5820 c3        1 MOL      0.200816
     98 C32        -0.0590   -1.9390   -4.4730 c3        1 MOL      0.355884
     99 C33        -2.1540   -1.1220   -3.4750 c3        1 MOL     -0.836367
    100 C34        -0.3690   -2.0450   -5.9250 c3        1 MOL     -0.225446
    101 H42        -0.1420   -4.6330   -2.4600 hn        1 MOL      0.326146
    102 H43        -0.6900   -1.7150   -1.6430 h1        1 MOL      0.146771
    103 H44        -1.6980   -3.2150   -4.0240 hc        1 MOL     -0.026198
    104 H45         0.7500   -2.6440   -4.3080 hc        1 MOL     -0.077934
    105 H46         0.3190   -0.9480   -4.2090 hc        1 MOL     -0.077934
    106 H47        -2.5940   -0.8460   -4.4300 hc        1 MOL      0.180502
    107 H48        -2.9580   -1.3920   -2.7950 hc        1 MOL      0.180502
    108 H49        -1.5490   -0.3460   -3.0150 hc        1 MOL      0.180502
    109 H50        -0.5690   -3.0970   -6.1380 hc        1 MOL      0.039444
    110 H51        -1.2250   -1.4410   -6.2130 hc        1 MOL      0.039444
    111 H52         0.5570   -1.7860   -6.4300 hc        1 MOL      0.039444
    112 N10        -2.6820   -2.2570   -0.2890 n         1 MOL     -0.147284
    113 C35        -4.0120   -2.6070    0.3990 c3        1 MOL     -0.049347
    114 C36        -5.2450   -2.0780   -0.3560 c         1 MOL      0.387269
    115 O17        -5.1590   -1.2950   -1.2760 o         1 MOL     -0.292117
    116 C37        -4.0140   -2.0300    1.8050 c3        1 MOL      0.040540
    117 C38        -2.8780   -2.3720    2.7740 c3        1 MOL     -0.187888
    118 O18        -3.7990   -0.6640    1.7750 oh        1 MOL     -0.479379
    119 H53        -2.0880   -1.4510   -0.1710 hn        1 MOL      0.171257
    120 H54        -4.1300   -3.6890    0.4360 h1        1 MOL      0.093590
    121 H55        -4.9560   -2.1760    2.3380 h1        1 MOL      0.100684
    122 H56        -2.9260   -0.5660    1.3960 ho        1 MOL      0.388570
    123 H57        -1.9850   -2.5820    2.1810 hc        1 MOL      0.049386
    124 H58        -2.6090   -1.5730    3.4520 hc        1 MOL      0.049386
    125 H59        -3.2010   -3.1970    3.4240 hc        1 MOL      0.049386
    126 N11        -6.4540   -2.3840    0.0320 n         1 MOL     -0.309127
    127 C39        -7.6830   -1.8580   -0.5380 c3        1 MOL     -0.124772
    128 C40        -7.6870   -0.3290   -0.4270 c         1 MOL      0.457233
    129 O19        -8.1780    0.2950   -1.3060 o         1 MOL     -0.484051
    130 C41        -8.8740   -2.4180    0.2810 c3        1 MOL      0.321157
    131 C42        -9.0490   -3.9230    0.0220 c3        1 MOL     -0.469990
    132 O20        -8.6680   -2.2210    1.7120 oh        1 MOL     -0.626815
    133 H60        -6.5340   -2.9780    0.8440 hn        1 MOL      0.264375
    134 H61        -7.8130   -2.0910   -1.5970 h1        1 MOL      0.147040
    135 H62        -9.7750   -1.8780   -0.0160 h1        1 MOL      0.042284
    136 H63        -9.5350   -2.2410    2.1300 ho        1 MOL      0.400169
    137 H64        -8.1680   -4.5580    0.1480 hc        1 MOL      0.132264
    138 H65        -9.7330   -4.2890    0.7900 hc        1 MOL      0.132264
    139 H66        -9.4200   -3.9940   -1.0060 hc        1 MOL      0.132264
    140 N12        -7.2230    0.1830    0.6970 n         1 MOL     -0.288492
    141 C43        -7.0040    1.6050    1.0310 c3        1 MOL      0.091755
    142 C44        -6.0220    2.2660    0.0240 c         1 MOL      0.282032
    143 O21        -6.3390    3.3060   -0.5700 o         1 MOL     -0.502781
    144 C45        -6.4950    1.7620    2.4600 c3        1 MOL      0.029598
    145 C46        -7.1380    0.7790    3.4980 c3        1 MOL     -0.176979
    146 C47        -6.6220    1.0340    4.9190 c3        1 MOL     -0.005646
    147 C48        -7.0800    2.3700    5.4430 c3        1 MOL      0.008967
    148 N13        -6.8150    2.5970    6.9170 n4        1 MOL     -0.379327
    149 H67        -6.8680   -0.4670    1.3860 hn        1 MOL      0.105252
    150 H68        -7.8980    2.2270    0.9690 h1        1 MOL      0.063867
    151 H69        -6.6890    2.7710    2.8210 hc        1 MOL     -0.004454
    152 H70        -5.4390    1.5200    2.3680 hc        1 MOL     -0.004454
    153 H71        -6.7710   -0.2200    3.2620 hc        1 MOL      0.083743
    154 H72        -8.2150    0.7970    3.3870 hc        1 MOL      0.083743
    155 H73        -5.5300    1.0550    4.8550 hc        1 MOL      0.046231
    156 H74        -6.9510    0.2960    5.6420 hc        1 MOL      0.046231
    157 H75        -8.1210    2.4070    5.1330 hx        1 MOL      0.102069
    158 H76        -6.5420    3.0840    4.8080 hx        1 MOL      0.102069
    159 H77        -7.0650    3.5070    7.2710 hn        1 MOL      0.320479
    160 H78        -7.3670    1.8940    7.4020 hn        1 MOL      0.320479
    161 H79        -5.8640    2.3890    7.1940 hn        1 MOL      0.320479
    162 N14        -4.9810    1.5650   -0.4240 n         1 MOL     -0.005339
    163 C49        -4.0010    1.9920   -1.4320 c3        1 MOL     -0.066647
    164 C50        -4.4380    1.8210   -2.8820 c         1 MOL      0.473205
    165 O22        -4.0760    2.6660   -3.6610 o         1 MOL     -0.569211
    166 C51        -2.6710    1.2360   -1.1350 c3        1 MOL     -0.107225
    167 C52        -1.7600    1.8010    0.0250 c3        1 MOL     -0.284339
    168 C53        -0.5600    0.8970    0.4010 c         1 MOL      0.630059
    169 O23        -0.7010   -0.3180    0.5400 o         1 MOL     -0.665466
    170 O24         0.4910    1.5240    0.6510 o         1 MOL     -0.665466
    171 H80        -4.8990    0.6020   -0.1320 hn        1 MOL      0.065129
    172 H81        -3.7610    3.0500   -1.3130 h1        1 MOL      0.083689
    173 H82        -2.0680    1.2670   -2.0370 hc        1 MOL      0.114974
    174 H83        -3.0670    0.2310   -1.0160 hc        1 MOL      0.114974
    175 H84        -2.3270    1.9900    0.9390 hc        1 MOL      0.079426
    176 H85        -1.4530    2.8170   -0.2570 hc        1 MOL      0.079426
    177 N15        -5.2560    0.8760   -3.1900 n         1 MOL      0.011796
    178 C54        -5.9580    0.8980   -4.4640 c3        1 MOL     -0.536978
    179 H86        -6.6890    0.0890   -4.4880 h1        1 MOL      0.171170
    180 H87        -6.4700    1.8530   -4.5810 h1        1 MOL      0.171170
    181 H88        -5.2440    0.7660   -5.2760 h1        1 MOL      0.171170
    182 H89        -5.3850    0.1600   -2.4890 hn        1 MOL      0.092342
    183 Ca1         1.7260   -0.8440    1.3760 Ca        1 MOL      1.734761
    184 O25         0.7280   -3.1440    2.0850 oh        1 MOL     -0.825113
    185 H90         1.1750   -3.9780    1.9340 ho        1 MOL      0.383099
    186 H91         0.1940   -3.3030    2.8650 ho        1 MOL      0.383099
    187 O26         0.3830    0.1040    3.5160 oh        1 MOL     -0.825113
    188 H92        -0.4550    0.4710    3.8030 ho        1 MOL      0.383099
    189 H93         1.0170    0.4180    4.1620 ho        1 MOL      0.383099
@<TRIPOS>BOND
     1    1    2 1   
     2    1    4 1   
     3    1    5 1   
     4    1    6 1   
     5    2    3 2   
     6    2    7 1   
     7    7    8 1   
     8    7   15 1   
     9    8    9 1   
    10    8   11 1   
    11    8   16 1   
    12    9   10 2   
    13    9   19 1   
    14   11   12 1   
    15   11   17 1   
    16   11   18 1   
    17   12   13 1   
    18   12   14 1   
    19   19   20 1   
    20   19   28 1   
    21   20   21 1   
    22   20   23 1   
    23   20   29 1   
    24   21   22 2   
    25   21   41 1   
    26   23   24 1   
    27   23   30 1   
    28   23   31 1   
    29   24   25 1   
    30   24   32 1   
    31   24   33 1   
    32   25   26 1   
    33   25   34 1   
    34   25   35 1   
    35   26   27 1   
    36   26   36 1   
    37   26   37 1   
    38   27   38 1   
    39   27   39 1   
    40   27   40 1   
    41   41   42 1   
    42   41   49 1   
    43   42   43 1   
    44   42   45 1   
    45   42   50 1   
    46   43   44 2   
    47   43   53 1   
    48   45   46 1   
    49   45   51 1   
    50   45   52 1   
    51   46   47 1   
    52   46   48 1   
    53   53   54 1   
    54   53   57 1   
    55   54   55 1   
    56   54   58 1   
    57   54   59 1   
    58   55   56 2   
    59   55   60 1   
    60   60   61 1   
    61   60   68 1   
    62   61   62 1   
    63   61   64 1   
    64   61   69 1   
    65   62   63 2   
    66   62   72 1   
    67   64   65 1   
    68   64   70 1   
    69   64   71 1   
    70   65   66 1   
    71   65   67 1   
    72   72   73 1   
    73   72   76 1   
    74   73   74 1   
    75   73   77 1   
    76   73   78 1   
    77   74   75 2   
    78   74   79 1   
    79   79   80 1   
    80   79   86 1   
    81   80   81 1   
    82   80   83 1   
    83   80   87 1   
    84   81   82 2   
    85   81   93 1   
    86   83   84 1   
    87   83   85 1   
    88   83   88 1   
    89   84   90 1   
    90   84   91 1   
    91   84   92 1   
    92   85   89 1   
    93   93   94 1   
    94   93  101 1   
    95   94   95 1   
    96   94   97 1   
    97   94  102 1   
    98   95   96 2   
    99   95  112 1   
   100   97   98 1   
   101   97   99 1   
   102   97  103 1   
   103   98  100 1   
   104   98  104 1   
   105   98  105 1   
   106   99  106 1   
   107   99  107 1   
   108   99  108 1   
   109  100  109 1   
   110  100  110 1   
   111  100  111 1   
   112  112  113 1   
   113  112  119 1   
   114  113  114 1   
   115  113  116 1   
   116  113  120 1   
   117  114  115 2   
   118  114  126 1   
   119  116  117 1   
   120  116  118 1   
   121  116  121 1   
   122  117  123 1   
   123  117  124 1   
   124  117  125 1   
   125  118  122 1   
   126  126  127 1   
   127  126  133 1   
   128  127  128 1   
   129  127  130 1   
   130  127  134 1   
   131  128  129 2   
   132  128  140 1   
   133  130  131 1   
   134  130  132 1   
   135  130  135 1   
   136  131  137 1   
   137  131  138 1   
   138  131  139 1   
   139  132  136 1   
   140  140  141 1   
   141  140  149 1   
   142  141  142 1   
   143  141  144 1   
   144  141  150 1   
   145  142  143 2   
   146  142  162 1   
   147  144  145 1   
   148  144  151 1   
   149  144  152 1   
   150  145  146 1   
   151  145  153 1   
   152  145  154 1   
   153  146  147 1   
   154  146  155 1   
   155  146  156 1   
   156  147  148 1   
   157  147  157 1   
   158  147  158 1   
   159  148  159 1   
   160  148  160 1   
   161  148  161 1   
   162  162  163 1   
   163  162  171 1   
   164  163  164 1   
   165  163  166 1   
   166  163  172 1   
   167  164  165 2   
   168  164  177 1   
   169  166  167 1   
   170  166  173 1   
   171  166  174 1   
   172  167  168 1   
   173  167  175 1   
   174  167  176 1   
   175  168  169 1   
   176  168  170 1   
   177  177  178 1   
   178  177  182 1   
   179  178  179 1   
   180  178  180 1   
   181  178  181 1   
   182  184  185 1   
   183  184  186 1   
   184  187  188 1   
   185  187  189 1   
@<TRIPOS>SUBSTRUCTURE
     1 MOL         1 TEMP              0 ****  ****    0 ROOT
