@<TRIPOS>MOLECULE
MOL
  169   169     1     0     0
SMALL
resp


@<TRIPOS>ATOM
      1 C1          0.7780    4.1480    5.5790 c3        1 MOL     -0.458195
      2 C2          0.1050    3.9810    4.1740 c         1 MOL      0.703722
      3 O1          0.7910    3.9770    3.1240 o         1 MOL     -0.587505
      4 H1          0.0410    3.9610    6.3590 hc        1 MOL      0.120445
      5 H2          1.5970    3.4360    5.6770 hc        1 MOL      0.120445
      6 H3          1.1630    5.1630    5.6790 hc        1 MOL      0.120445
      7 N1         -1.1990    3.7490    4.0690 n         1 MOL     -0.646124
      8 C3         -1.8700    3.5190    2.7570 c3        1 MOL      0.353411
      9 C4         -2.0890    4.7470    1.8840 c         1 MOL      0.390814
     10 O2         -2.6700    5.7550    2.3100 o         1 MOL     -0.579054
     11 C5         -3.1040    2.5320    2.9860 c3        1 MOL     -0.316922
     12 C6         -3.4060    1.6360    1.7370 c         1 MOL      0.806124
     13 O3         -3.4500    2.1450    0.6160 o         1 MOL     -0.779467
     14 O4         -3.3220    0.3600    1.7550 o         1 MOL     -0.779467
     15 H4         -1.7360    3.9100    4.9050 hn        1 MOL      0.314592
     16 H5         -1.1450    2.8970    2.2330 h1        1 MOL      0.059397
     17 H6         -3.9570    3.0920    3.3520 hc        1 MOL      0.070938
     18 H7         -2.7850    1.8000    3.7360 hc        1 MOL      0.070938
     19 N2         -1.8870    4.5790    0.5830 n         1 MOL     -0.269664
     20 C7         -2.1450    5.4940   -0.4460 c3        1 MOL      0.369950
     21 C8         -3.3980    5.3170   -1.3730 c         1 MOL      0.485201
     22 O5         -3.7390    6.3230   -2.0090 o         1 MOL     -0.568552
     23 C9         -0.8880    5.5650   -1.3600 c3        1 MOL     -0.350155
     24 H8         -1.5340    3.6670    0.3500 hn        1 MOL      0.140927
     25 H9         -2.3940    6.4350    0.0490 h1        1 MOL     -0.028642
     26 H10        -0.0220    5.5420   -0.7040 hc        1 MOL      0.078869
     27 H11        -0.9260    4.8750   -2.2120 hc        1 MOL      0.078869
     28 H12        -0.9280    6.5580   -1.8180 hc        1 MOL      0.078869
     29 N3         -3.9900    4.0910   -1.4590 n         1 MOL     -0.501186
     30 C10        -4.8980    3.6890   -2.5240 c3        1 MOL      0.158822
     31 C11        -6.1030    2.9330   -2.0480 c         1 MOL      0.439963
     32 O6         -7.0930    2.9790   -2.7250 o         1 MOL     -0.548295
     33 C12        -4.1000    2.8900   -3.5000 c3        1 MOL      0.009395
     34 C13        -3.3720    1.6560   -3.0160 c         1 MOL      0.682547
     35 O7         -4.0560    0.6920   -2.4910 o         1 MOL     -0.698639
     36 O8         -2.1420    1.5080   -3.1190 o         1 MOL     -0.698639
     37 H13        -3.7640    3.4140   -0.7390 hn        1 MOL      0.222720
     38 H14        -5.2530    4.5610   -3.0720 h1        1 MOL      0.047760
     39 H15        -3.3600    3.5720   -3.9220 hc        1 MOL     -0.005683
     40 H16        -4.7120    2.6380   -4.3660 hc        1 MOL     -0.005683
     41 N4         -5.9670    2.2100   -0.9470 n         1 MOL     -0.237890
     42 C14        -7.1110    1.4160   -0.3570 c3        1 MOL     -0.295730
     43 C15        -7.5200    0.0660   -1.0100 c         1 MOL      0.579851
     44 O9         -8.6560   -0.4250   -0.8130 o         1 MOL     -0.622278
     45 H17        -5.1100    2.2100   -0.4210 hn        1 MOL      0.238911
     46 H18        -7.9910    2.0520   -0.3570 h1        1 MOL      0.128082
     47 H19        -6.8720    1.1910    0.6800 h1        1 MOL      0.128082
     48 N5         -6.5510   -0.5660   -1.6560 n         1 MOL     -0.271231
     49 C16        -6.5270   -2.0000   -2.0900 c3        1 MOL      0.107529
     50 C17        -6.4830   -2.9330   -0.9380 c         1 MOL      0.397730
     51 O10        -6.2690   -4.1200   -1.2600 o         1 MOL     -0.504591
     52 C18        -5.3260   -2.1970   -3.0770 c3        1 MOL     -0.330032
     53 C19        -3.9650   -2.2610   -2.3990 c         1 MOL      0.759524
     54 N6         -2.8650   -2.5850   -3.0870 n         1 MOL     -0.682036
     55 O11        -3.8120   -1.9680   -1.2110 o         1 MOL     -0.730708
     56 H20        -5.6880   -0.0500   -1.7380 hn        1 MOL      0.142180
     57 H21        -7.4750   -2.1880   -2.6070 h1        1 MOL      0.088120
     58 H22        -5.2530   -1.3560   -3.7550 hc        1 MOL      0.097690
     59 H23        -5.4990   -3.1660   -3.5490 hc        1 MOL      0.097690
     60 H24        -3.0390   -2.8800   -4.0390 hn        1 MOL      0.321305
     61 H25        -1.9190   -2.5650   -2.7470 hn        1 MOL      0.321305
     62 N7         -6.7200   -2.5040    0.3250 n         1 MOL     -0.274822
     63 C20        -6.7690   -3.3800    1.4930 c3        1 MOL     -0.216036
     64 C21        -5.4430   -3.9260    2.0190 c         1 MOL      0.521226
     65 O12        -5.4810   -4.5070    3.0670 o         1 MOL     -0.588820
     66 H26        -6.7960   -1.4980    0.4160 hn        1 MOL      0.280789
     67 H27        -7.4550   -4.2150    1.3300 h1        1 MOL      0.119923
     68 H28        -7.2150   -2.7780    2.2790 h1        1 MOL      0.119923
     69 N8         -4.3150   -3.7080    1.3770 n         1 MOL     -0.074136
     70 C22        -2.9170   -4.1990    1.7560 c3        1 MOL     -0.354103
     71 C23        -1.7970   -3.1470    1.6480 c         1 MOL      0.733813
     72 O13        -1.9700   -2.2340    0.8250 o         1 MOL     -0.536719
     73 C24        -2.6880   -5.4770    0.9360 c3        1 MOL      0.557745
     74 C25        -3.6220   -6.5810    1.1770 c3        1 MOL     -0.405668
     75 O14        -2.7280   -5.1460   -0.4830 oh        1 MOL     -0.623297
     76 H29        -4.4530   -3.0510    0.6140 hn        1 MOL      0.126197
     77 H30        -3.0920   -4.4130    2.8070 h1        1 MOL      0.114328
     78 H31        -1.6830   -5.8350    1.1580 h1        1 MOL     -0.053914
     79 H32        -2.5210   -4.2110   -0.6010 ho        1 MOL      0.385144
     80 H33        -3.1430   -7.4330    0.6940 hc        1 MOL      0.098564
     81 H34        -3.7750   -6.7550    2.2370 hc        1 MOL      0.098564
     82 H35        -4.5430   -6.3690    0.6390 hc        1 MOL      0.098564
     83 N9         -0.6550   -3.3740    2.3230 n         1 MOL     -0.656739
     84 C26         0.6400   -2.6170    2.0660 c3        1 MOL      0.183852
     85 C27         1.3860   -3.1690    0.8030 c         1 MOL      0.474939
     86 O15         1.7910   -4.3440    0.6170 o         1 MOL     -0.585625
     87 C28         1.4600   -2.7690    3.3270 c3        1 MOL      0.009841
     88 C29         1.0020   -1.5530    4.1610 c3        1 MOL      0.067914
     89 C30         2.9740   -2.7470    3.0590 c3        1 MOL     -0.185416
     90 C31         1.5040   -1.5930    5.5530 c3        1 MOL     -0.155952
     91 H36        -0.5600   -4.2200    2.8750 hn        1 MOL      0.301410
     92 H37         0.3490   -1.5940    1.8120 h1        1 MOL      0.035866
     93 H38         1.2990   -3.7340    3.8050 hc        1 MOL      0.045647
     94 H39        -0.0830   -1.4800    4.1270 hc        1 MOL      0.015295
     95 H40         1.3120   -0.6240    3.6740 hc        1 MOL      0.015295
     96 H41         3.4820   -2.8400    4.0180 hc        1 MOL      0.034276
     97 H42         3.2420   -3.5970    2.4360 hc        1 MOL      0.034276
     98 H43         3.2640   -1.7550    2.7280 hc        1 MOL      0.034276
     99 H44         2.4960   -1.1490    5.5130 hc        1 MOL      0.023574
    100 H45         0.8410   -1.0600    6.2440 hc        1 MOL      0.023574
    101 H46         1.6320   -2.6110    5.9010 hc        1 MOL      0.023574
    102 N10         1.6630   -2.2640   -0.1230 n         1 MOL     -0.176572
    103 C32         2.5170   -2.3770   -1.2980 c3        1 MOL      0.096662
    104 C33         3.9290   -1.7550   -0.9610 c         1 MOL      0.287314
    105 O16         3.9890   -0.9380   -0.0840 o         1 MOL     -0.153681
    106 C34         1.8380   -1.4730   -2.3670 c3        1 MOL     -0.343883
    107 C35         0.3710   -1.8960   -2.6720 c         1 MOL      0.777988
    108 O17         0.1850   -2.7930   -3.5600 o         1 MOL     -0.685484
    109 O18        -0.5520   -1.2520   -2.1120 o         1 MOL     -0.685484
    110 H47         1.3440   -1.3260    0.0710 hn        1 MOL     -0.026969
    111 H48         2.5600   -3.4070   -1.6540 h1        1 MOL      0.065019
    112 H49         2.3880   -1.6270   -3.2920 hc        1 MOL      0.088549
    113 H50         1.7920   -0.4680   -1.9460 hc        1 MOL      0.088549
    114 N11         4.9540   -2.0580   -1.7180 n         1 MOL     -0.507804
    115 C36         6.3500   -1.6560   -1.4760 c3        1 MOL      0.254222
    116 C37         6.5730   -0.1890   -0.9430 c         1 MOL      0.289270
    117 O19         7.0700   -0.0760    0.1600 o         1 MOL     -0.484259
    118 C38         7.3800   -2.1650   -2.4740 c3        1 MOL     -0.478100
    119 C39         8.7860   -1.7040   -2.1540 ca        1 MOL      0.378950
    120 C40         9.5520   -2.4380   -1.2180 ca        1 MOL     -0.329114
    121 C41         9.3980   -0.6600   -2.8940 ca        1 MOL     -0.329114
    122 C42        10.8660   -2.0380   -0.8870 ca        1 MOL     -0.019912
    123 C43        10.7540   -0.3120   -2.6520 ca        1 MOL     -0.019912
    124 C44        11.4930   -0.9890   -1.6330 ca        1 MOL     -0.214266
    125 H51         4.8480   -2.7110   -2.4770 hn        1 MOL      0.327241
    126 H52         6.6300   -2.2060   -0.5750 h1        1 MOL      0.070288
    127 H53         7.1100   -1.8410   -3.4780 hc        1 MOL      0.125535
    128 H54         7.3970   -3.2610   -2.4220 hc        1 MOL      0.125535
    129 H55         9.0960   -3.1700   -0.5690 ha        1 MOL      0.162277
    130 H56         8.8280   -0.0180   -3.5490 ha        1 MOL      0.162277
    131 H57        11.4340   -2.4490   -0.0570 ha        1 MOL      0.100284
    132 H58        11.2600    0.4770   -3.1920 ha        1 MOL      0.100284
    133 H59        12.5060   -0.7640   -1.3420 ha        1 MOL      0.127365
    134 N12         6.2290    0.8580   -1.6750 n         1 MOL      0.072237
    135 C45         6.3110    2.2160   -1.1970 c3        1 MOL     -0.008519
    136 C46         5.6760    2.4410    0.1630 c         1 MOL      0.264945
    137 O20         6.2070    3.1910    1.0150 o         1 MOL     -0.500512
    138 C47         5.6370    3.1540   -2.2050 c3        1 MOL     -0.085607
    139 C48         6.1660    2.4000   -3.4580 c3        1 MOL      0.029064
    140 C49         5.9560    0.9100   -3.1120 c3        1 MOL      0.109298
    141 H60         7.3950    2.3100   -1.2580 h1        1 MOL      0.048511
    142 H61         4.5470    3.1820   -2.2600 hc        1 MOL      0.061386
    143 H62         6.0690    4.1600   -2.2620 hc        1 MOL      0.061386
    144 H63         5.5990    2.5900   -4.3740 hc        1 MOL     -0.007458
    145 H64         7.2230    2.5620   -3.6950 hc        1 MOL     -0.007458
    146 H65         4.9290    0.5620   -3.2260 h1        1 MOL     -0.029343
    147 H66         6.6560    0.3280   -3.7090 h1        1 MOL     -0.029343
    148 N13         4.5780    1.7250    0.4210 n         1 MOL     -0.048368
    149 C50         3.8510    1.8330    1.6960 c3        1 MOL     -0.217653
    150 C51         4.5730    1.1630    2.8560 c         1 MOL      0.434449
    151 O21         4.6350    1.6650    3.9960 o         1 MOL     -0.568700
    152 C52         2.3880    1.3420    1.5450 c3        1 MOL     -0.017049
    153 C53         1.6720    1.9910    0.3490 c3        1 MOL     -0.138762
    154 C54         0.3350    1.3930    0.2620 c         1 MOL      0.702179
    155 O22         0.1180    0.1780    0.3920 o         1 MOL     -0.674477
    156 O23        -0.6020    2.0820   -0.1810 o         1 MOL     -0.674477
    157 H67         4.3080    1.0070   -0.2320 hn        1 MOL      0.079122
    158 H68         3.9230    2.9040    1.8840 h1        1 MOL      0.146466
    159 H69         1.8790    1.5820    2.4730 hc        1 MOL      0.072891
    160 H70         2.3280    0.2520    1.4630 hc        1 MOL      0.072891
    161 H71         2.2330    1.8240   -0.5780 hc        1 MOL      0.058589
    162 H72         1.7100    3.0700    0.4940 hc        1 MOL      0.058589
    163 N14         5.1860    0.0600    2.5030 n         1 MOL      0.156912
    164 C55         6.0460   -0.6640    3.4340 c3        1 MOL     -0.275524
    165 H73         5.4450   -1.0490    4.2580 h1        1 MOL      0.083461
    166 H74         6.5270   -1.4940    2.9150 h1        1 MOL      0.083461
    167 H75         6.8080    0.0110    3.8250 h1        1 MOL      0.083461
    168 H76         5.1400   -0.2560    1.5390 hn        1 MOL     -0.026508
    169 Ca1        -2.2740    0.0190   -0.5870 Ca        1 MOL      1.753468
@<TRIPOS>BOND
     1    1    2 1   
     2    1    4 1   
     3    1    5 1   
     4    1    6 1   
     5    2    3 2   
     6    2    7 1   
     7    7    8 1   
     8    7   15 1   
     9    8    9 1   
    10    8   11 1   
    11    8   16 1   
    12    9   10 2   
    13    9   19 1   
    14   11   12 1   
    15   11   17 1   
    16   11   18 1   
    17   12   13 1   
    18   12   14 1   
    19   19   20 1   
    20   19   24 1   
    21   20   21 1   
    22   20   23 1   
    23   20   25 1   
    24   21   22 2   
    25   21   29 1   
    26   23   26 1   
    27   23   27 1   
    28   23   28 1   
    29   29   30 1   
    30   29   37 1   
    31   30   31 1   
    32   30   33 1   
    33   30   38 1   
    34   31   32 2   
    35   31   41 1   
    36   33   34 1   
    37   33   39 1   
    38   33   40 1   
    39   34   35 1   
    40   34   36 1   
    41   41   42 1   
    42   41   45 1   
    43   42   43 1   
    44   42   46 1   
    45   42   47 1   
    46   43   44 2   
    47   43   48 1   
    48   48   49 1   
    49   48   56 1   
    50   49   50 1   
    51   49   52 1   
    52   49   57 1   
    53   50   51 2   
    54   50   62 1   
    55   52   53 1   
    56   52   58 1   
    57   52   59 1   
    58   53   54 1   
    59   53   55 2   
    60   54   60 1   
    61   54   61 1   
    62   62   63 1   
    63   62   66 1   
    64   63   64 1   
    65   63   67 1   
    66   63   68 1   
    67   64   65 2   
    68   64   69 1   
    69   69   70 1   
    70   69   76 1   
    71   70   71 1   
    72   70   73 1   
    73   70   77 1   
    74   71   72 2   
    75   71   83 1   
    76   73   74 1   
    77   73   75 1   
    78   73   78 1   
    79   74   80 1   
    80   74   81 1   
    81   74   82 1   
    82   75   79 1   
    83   83   84 1   
    84   83   91 1   
    85   84   85 1   
    86   84   87 1   
    87   84   92 1   
    88   85   86 2   
    89   85  102 1   
    90   87   88 1   
    91   87   89 1   
    92   87   93 1   
    93   88   90 1   
    94   88   94 1   
    95   88   95 1   
    96   89   96 1   
    97   89   97 1   
    98   89   98 1   
    99   90   99 1   
   100   90  100 1   
   101   90  101 1   
   102  102  103 1   
   103  102  110 1   
   104  103  104 1   
   105  103  106 1   
   106  103  111 1   
   107  104  105 2   
   108  104  114 1   
   109  106  107 1   
   110  106  112 1   
   111  106  113 1   
   112  107  108 1   
   113  107  109 1   
   114  114  115 1   
   115  114  125 1   
   116  115  116 1   
   117  115  118 1   
   118  115  126 1   
   119  116  117 2   
   120  116  134 1   
   121  118  119 1   
   122  118  127 1   
   123  118  128 1   
   124  119  120 ar  
   125  119  121 ar  
   126  120  122 ar  
   127  120  129 1   
   128  121  123 ar  
   129  121  130 1   
   130  122  124 ar  
   131  122  131 1   
   132  123  124 ar  
   133  123  132 1   
   134  124  133 1   
   135  134  135 1   
   136  134  140 1   
   137  135  136 1   
   138  135  138 1   
   139  135  141 1   
   140  136  137 2   
   141  136  148 1   
   142  138  139 1   
   143  138  142 1   
   144  138  143 1   
   145  139  140 1   
   146  139  144 1   
   147  139  145 1   
   148  140  146 1   
   149  140  147 1   
   150  148  149 1   
   151  148  157 1   
   152  149  150 1   
   153  149  152 1   
   154  149  158 1   
   155  150  151 2   
   156  150  163 1   
   157  152  153 1   
   158  152  159 1   
   159  152  160 1   
   160  153  154 1   
   161  153  161 1   
   162  153  162 1   
   163  154  155 1   
   164  154  156 1   
   165  163  164 1   
   166  163  168 1   
   167  164  165 1   
   168  164  166 1   
   169  164  167 1   
@<TRIPOS>SUBSTRUCTURE
     1 MOL         1 TEMP              0 ****  ****    0 ROOT
