@<TRIPOS>MOLECULE
MOL
  179   176     1     0     0
SMALL
resp


@<TRIPOS>ATOM
      1 C1          2.5760    1.9070    5.0030 c3        1 MOL     -0.282565
      2 C2          1.8060    1.4990    3.6710 c         1 MOL      0.710888
      3 O1          2.4150    1.0410    2.7240 o         1 MOL     -0.589765
      4 H1          2.2580    1.2590    5.8190 hc        1 MOL      0.070583
      5 H2          3.6490    1.7970    4.8500 hc        1 MOL      0.070583
      6 H3          2.3480    2.9430    5.2520 hc        1 MOL      0.070583
      7 N1          0.4910    1.6580    3.7210 n         1 MOL     -0.559757
      8 C3         -0.4280    1.6980    2.6020 c3        1 MOL      0.298238
      9 C4         -0.5610    3.1980    2.1490 c         1 MOL      0.432322
     10 O2         -1.2790    3.9630    2.6870 o         1 MOL     -0.487730
     11 C5         -1.7870    1.0080    3.0260 c3        1 MOL     -0.290707
     12 C6         -2.7970    1.1960    1.9270 c         1 MOL      0.686674
     13 O3         -3.9990    1.1760    2.1980 o         1 MOL     -0.695447
     14 O4         -2.4340    1.4370    0.7770 o         1 MOL     -0.695447
     15 H4          0.1410    1.8950    4.6440 hn        1 MOL      0.300026
     16 H5         -0.0520    1.1230    1.7590 h1        1 MOL     -0.065009
     17 H6         -2.1990    1.5090    3.8990 hc        1 MOL      0.084435
     18 H7         -1.5790   -0.0550    3.1460 hc        1 MOL      0.084435
     19 N2          0.3230    3.6020    1.2300 n         1 MOL     -0.191369
     20 C7          0.5430    5.0080    0.9600 c3        1 MOL      0.050668
     21 C8         -0.4810    5.7260    0.0690 c         1 MOL      0.402578
     22 O5         -0.7250    6.8640    0.3310 o         1 MOL     -0.528505
     23 C9          1.9120    5.1780    0.2620 c3        1 MOL     -0.190267
     24 C10         3.0280    4.6330    1.1360 c3        1 MOL      0.092610
     25 C11         4.3590    4.7920    0.5340 c3        1 MOL     -0.108498
     26 C12         4.7220    6.2020    0.1090 c3        1 MOL      0.088696
     27 N3          6.0500    6.2760   -0.4520 n4        1 MOL     -0.343926
     28 H8          1.0370    2.9690    0.9130 hn        1 MOL     -0.017681
     29 H9          0.6640    5.5760    1.8890 h1        1 MOL      0.084337
     30 H10         2.0080    6.2530    0.0720 hc        1 MOL      0.064004
     31 H11         2.0610    4.5320   -0.5950 hc        1 MOL      0.064004
     32 H12         2.7790    3.5970    1.3510 hc        1 MOL      0.017895
     33 H13         2.9550    5.1200    2.1000 hc        1 MOL      0.017895
     34 H14         4.3400    4.1350   -0.3390 hc        1 MOL      0.068115
     35 H15         5.1550    4.3720    1.1510 hc        1 MOL      0.068115
     36 H16         4.7550    6.8740    0.9680 hx        1 MOL      0.063348
     37 H17         3.9990    6.5010   -0.6520 hx        1 MOL      0.063348
     38 H18         6.0590    5.7430   -1.3060 hn        1 MOL      0.325233
     39 H19         6.2580    7.2150   -0.7580 hn        1 MOL      0.325233
     40 H20         6.7480    5.9310    0.1980 hn        1 MOL      0.325233
     41 N4         -1.1020    5.0080   -0.8610 n         1 MOL     -0.234479
     42 C13        -2.2690    5.4680   -1.6170 c3        1 MOL      0.055446
     43 C14        -3.5970    5.1140   -0.9160 c         1 MOL      0.370808
     44 O6         -4.6450    5.5130   -1.4740 o         1 MOL     -0.554301
     45 C15        -2.1950    4.8450   -2.9690 c3        1 MOL     -0.113582
     46 C16        -2.1980    3.3220   -3.0970 c         1 MOL      0.835440
     47 O7         -2.0990    2.8810   -4.2400 o         1 MOL     -0.731044
     48 O8         -2.4580    2.5930   -2.0980 o         1 MOL     -0.731044
     49 H21        -0.7440    4.0730   -1.0070 hn        1 MOL      0.102030
     50 H22        -2.2730    6.5540   -1.6810 h1        1 MOL      0.098100
     51 H23        -1.2820    5.2160   -3.4420 hc        1 MOL      0.028671
     52 H24        -2.9550    5.2750   -3.6200 hc        1 MOL      0.028671
     53 N5         -3.6530    4.4210    0.2030 n         1 MOL     -0.004495
     54 C17        -4.8250    4.1450    1.0160 c3        1 MOL     -0.362073
     55 C18        -5.8480    3.1610    0.4250 c         1 MOL      0.587854
     56 O9         -6.9880    3.0150    0.8200 o         1 MOL     -0.563815
     57 H25        -2.7640    4.2070    0.6300 hn        1 MOL      0.129706
     58 H26        -5.3400    5.0930    1.2200 h1        1 MOL      0.152532
     59 H27        -4.4800    3.8040    1.9890 h1        1 MOL      0.152532
     60 N6         -5.3340    2.4110   -0.5800 n         1 MOL     -0.267227
     61 C19        -6.0690    1.3740   -1.3220 c3        1 MOL     -0.045920
     62 C20        -6.5560    0.1420   -0.5230 c         1 MOL      0.303302
     63 O10        -7.3290   -0.6800   -0.9990 o         1 MOL     -0.486888
     64 C21        -5.2610    1.0540   -2.5850 c3        1 MOL     -0.214443
     65 C22        -4.0690    0.1070   -2.4280 c         1 MOL      0.840365
     66 N7         -3.4320   -0.0890   -3.6080 n         1 MOL     -0.913857
     67 O11        -3.6850   -0.4210   -1.4270 o         1 MOL     -0.746842
     68 H28        -4.3710    2.6200   -0.8150 hn        1 MOL      0.189943
     69 H29        -6.9730    1.8790   -1.6740 h1        1 MOL      0.117229
     70 H30        -4.9370    1.9670   -3.0800 hc        1 MOL      0.081106
     71 H31        -5.9310    0.4430   -3.1920 hc        1 MOL      0.081106
     72 H32        -3.7250    0.3990   -4.4420 hn        1 MOL      0.390033
     73 H33        -2.6740   -0.7620   -3.6810 hn        1 MOL      0.390033
     74 N8         -6.0510    0.0260    0.6780 n         1 MOL      0.011790
     75 C23        -6.4280   -1.2120    1.4090 c3        1 MOL     -0.610954
     76 C24        -5.3820   -2.3350    1.7290 c         1 MOL      0.716611
     77 O12        -5.6010   -3.3170    2.4240 o         1 MOL     -0.571529
     78 H34        -5.4370    0.7350    1.0490 hn        1 MOL      0.238015
     79 H35        -7.2620   -1.7450    0.9480 h1        1 MOL      0.208991
     80 H36        -6.7290   -0.8680    2.4030 h1        1 MOL      0.208991
     81 N9         -4.1880   -2.2140    1.1210 n         1 MOL     -0.893706
     82 C25        -3.2010   -3.2910    1.0750 c3        1 MOL      0.373080
     83 C26        -1.8230   -2.6670    1.1250 c         1 MOL      0.461261
     84 O13        -1.5680   -1.6100    0.4370 o         1 MOL     -0.656401
     85 C27        -3.2360   -3.9740   -0.2900 c3        1 MOL     -0.050156
     86 C28        -4.5180   -4.6630   -0.4990 ca        1 MOL     -0.000041
     87 C29        -5.7230   -3.9810   -0.9380 ca        1 MOL     -0.199639
     88 C30        -4.5520   -6.0600   -0.2500 ca        1 MOL     -0.199639
     89 C31        -6.9780   -4.7230   -1.0430 ca        1 MOL     -0.171588
     90 C32        -5.7990   -6.7190   -0.3430 ca        1 MOL     -0.171588
     91 C33        -7.0300   -6.1030   -0.6190 ca        1 MOL      0.262204
     92 O14        -8.2180   -6.7290   -0.6260 oh        1 MOL     -0.435174
     93 H37        -4.1820   -1.4680    0.4460 hn        1 MOL      0.853725
     94 H38        -3.3270   -3.9920    1.9010 h1        1 MOL      0.040041
     95 H39        -2.3430   -4.6080   -0.3200 hc        1 MOL      0.024051
     96 H40        -3.0630   -3.2650   -1.1050 hc        1 MOL      0.024051
     97 H41        -5.7620   -2.9260   -1.1570 ha        1 MOL      0.120770
     98 H42        -3.7210   -6.6750    0.0630 ha        1 MOL      0.120770
     99 H43        -7.8730   -4.1710   -1.2850 ha        1 MOL      0.115992
    100 H44        -5.8120   -7.7810   -0.1890 ha        1 MOL      0.115992
    101 H45        -8.1640   -7.5490   -0.1130 ho        1 MOL      0.341427
    102 N10        -0.8830   -3.2770    1.8220 n         1 MOL     -0.515670
    103 C34         0.5360   -2.8950    1.8840 c3        1 MOL     -0.033030
    104 C35         1.1580   -3.6990    0.7540 c         1 MOL      0.617913
    105 O15         0.9970   -4.8900    0.7480 o         1 MOL     -0.575231
    106 C36         1.0940   -3.3410    3.2980 c3        1 MOL      0.085577
    107 C37         0.4080   -2.3710    4.3170 c3        1 MOL     -0.035082
    108 C38         2.6150   -3.1770    3.3680 c3        1 MOL     -0.270567
    109 C39         0.8400   -2.7450    5.7050 c3        1 MOL     -0.023114
    110 H46        -1.1700   -3.9950    2.4750 hn        1 MOL      0.297041
    111 H47         0.6660   -1.8330    1.6680 h1        1 MOL      0.209548
    112 H48         0.7260   -4.3630    3.3880 hc        1 MOL      0.035916
    113 H49        -0.6710   -2.5180    4.2560 hc        1 MOL      0.010641
    114 H50         0.6920   -1.3530    4.0630 hc        1 MOL      0.010641
    115 H51         2.7320   -2.0920    3.3330 hc        1 MOL      0.068792
    116 H52         2.9930   -3.5950    4.3100 hc        1 MOL      0.068792
    117 H53         3.0690   -3.6090    2.4820 hc        1 MOL      0.068792
    118 H54         0.3820   -2.1250    6.4790 hc        1 MOL      0.012404
    119 H55         0.5220   -3.7320    6.0620 hc        1 MOL      0.012404
    120 H56         1.9040   -2.6610    5.9510 hc        1 MOL      0.012404
    121 N11         1.9590   -3.0420   -0.0810 n         1 MOL     -0.292435
    122 C40         2.7450   -3.6910   -1.1990 c3        1 MOL     -0.027189
    123 C41         4.2510   -3.5940   -0.9570 c         1 MOL      0.564501
    124 O16         4.6760   -2.6570   -0.2320 o         1 MOL     -0.450047
    125 C42         2.2010   -3.2760   -2.5550 c3        1 MOL      0.064946
    126 O17         2.1140   -1.8860   -2.6310 oh        1 MOL     -0.556468
    127 H57         1.9550   -2.0390    0.0250 hn        1 MOL      0.124957
    128 H58         2.5470   -4.7650   -1.0980 h1        1 MOL      0.045185
    129 H59         1.1550   -3.5670   -2.6280 h1        1 MOL      0.051805
    130 H60         2.6590   -3.8260   -3.3720 h1        1 MOL      0.051805
    131 H61         1.5900   -1.5640   -1.8830 ho        1 MOL      0.368195
    132 N12         5.0690   -4.5280   -1.4840 n         1 MOL     -0.545797
    133 C43         6.3950   -4.5960   -1.0910 c3        1 MOL      0.290984
    134 C44         7.2310   -3.3440   -1.2720 c         1 MOL      0.332391
    135 O18         8.0540   -3.0870   -0.3530 o         1 MOL     -0.486265
    136 C45         7.0140   -5.8270   -1.7170 c3        1 MOL     -0.380507
    137 H62         4.7520   -5.2780   -2.0870 hn        1 MOL      0.313555
    138 H63         6.4220   -4.6950   -0.0100 h1        1 MOL      0.050372
    139 H64         8.0930   -5.7270   -1.5840 hc        1 MOL      0.109529
    140 H65         6.7530   -6.7270   -1.1600 hc        1 MOL      0.109529
    141 H66         6.8110   -5.9300   -2.7830 hc        1 MOL      0.109529
    142 N13         6.9740   -2.5100   -2.3270 n         1 MOL     -0.214429
    143 C46         7.7120   -1.2670   -2.5330 c3        1 MOL     -0.043666
    144 C47         7.3740   -0.1210   -1.5510 c         1 MOL      0.431061
    145 O19         8.2410    0.5910   -1.0630 o         1 MOL     -0.509058
    146 C48         7.5380   -0.7580   -4.0170 c3        1 MOL     -0.149165
    147 H67         6.4880   -2.9260   -3.1050 hn        1 MOL      0.208214
    148 H68         8.7330   -1.6080   -2.3930 h1        1 MOL      0.107225
    149 H69         6.5190   -0.3940   -4.1660 hc        1 MOL      0.055857
    150 H70         8.2090    0.0370   -4.3490 hc        1 MOL      0.055857
    151 H71         7.6520   -1.5710   -4.7390 hc        1 MOL      0.055857
    152 N14         6.1230   -0.0060   -1.1050 n         1 MOL     -0.218884
    153 C49         5.6310    0.9880   -0.1130 c3        1 MOL     -0.127000
    154 C50         6.3570    0.7000    1.1900 c         1 MOL      0.565322
    155 O20         6.8310    1.5940    1.8480 o         1 MOL     -0.570553
    156 C51         4.0980    0.7530    0.1040 c3        1 MOL      0.313890
    157 C52         3.2550    1.1120   -1.0810 c3        1 MOL     -0.018446
    158 C53         1.7140    0.8490   -0.8610 c         1 MOL      0.569261
    159 O21         1.2390   -0.3260   -0.7390 o         1 MOL     -0.589003
    160 O22         0.9310    1.8210   -0.8060 o         1 MOL     -0.589003
    161 H72         5.4520   -0.6480   -1.5020 hn        1 MOL      0.190712
    162 H73         5.8810    2.0170   -0.3790 h1        1 MOL      0.006511
    163 H74         3.7690    1.2790    1.0040 hc        1 MOL     -0.078853
    164 H75         4.1070   -0.3160    0.3350 hc        1 MOL     -0.078853
    165 H76         3.6020    0.4790   -1.9010 hc        1 MOL     -0.033438
    166 H77         3.4310    2.1580   -1.3150 hc        1 MOL     -0.033438
    167 N15         6.3620   -0.5670    1.5540 n         1 MOL     -0.202246
    168 C54         6.9970   -1.0950    2.7940 c3        1 MOL     -0.135301
    169 H78         6.2670   -1.6790    3.3550 h1        1 MOL      0.080847
    170 H79         7.8420   -1.7300    2.5280 h1        1 MOL      0.080847
    171 H80         7.3450   -0.2640    3.4070 h1        1 MOL      0.080847
    172 H81         5.8940   -1.2420    0.9690 hn        1 MOL      0.181295
    173 Ca1        -1.2770    0.4420   -1.3210 Ca        1 MOL      1.681852
    174 O23        -1.0290   -1.8660   -2.8310 oh        1 MOL     -0.901380
    175 H82        -1.0250   -2.7910   -2.6030 ho        1 MOL      0.424060
    176 H83        -0.5500   -1.8140   -3.6580 ho        1 MOL      0.424060
    177 O24        -0.3070    1.0090   -3.8190 oh        1 MOL     -0.901380
    178 H84         0.0010    0.4740   -4.5470 ho        1 MOL      0.424060
    179 H85        -0.9030    1.6380   -4.2170 ho        1 MOL      0.424060
@<TRIPOS>BOND
     1    1    2 1   
     2    1    4 1   
     3    1    5 1   
     4    1    6 1   
     5    2    3 2   
     6    2    7 1   
     7    7    8 1   
     8    7   15 1   
     9    8    9 1   
    10    8   11 1   
    11    8   16 1   
    12    9   10 2   
    13    9   19 1   
    14   11   12 1   
    15   11   17 1   
    16   11   18 1   
    17   12   13 1   
    18   12   14 1   
    19   19   20 1   
    20   19   28 1   
    21   20   21 1   
    22   20   23 1   
    23   20   29 1   
    24   21   22 2   
    25   21   41 1   
    26   23   24 1   
    27   23   30 1   
    28   23   31 1   
    29   24   25 1   
    30   24   32 1   
    31   24   33 1   
    32   25   26 1   
    33   25   34 1   
    34   25   35 1   
    35   26   27 1   
    36   26   36 1   
    37   26   37 1   
    38   27   38 1   
    39   27   39 1   
    40   27   40 1   
    41   41   42 1   
    42   41   49 1   
    43   42   43 1   
    44   42   45 1   
    45   42   50 1   
    46   43   44 2   
    47   43   53 1   
    48   45   46 1   
    49   45   51 1   
    50   45   52 1   
    51   46   47 1   
    52   46   48 1   
    53   53   54 1   
    54   53   57 1   
    55   54   55 1   
    56   54   58 1   
    57   54   59 1   
    58   55   56 2   
    59   55   60 1   
    60   60   61 1   
    61   60   68 1   
    62   61   62 1   
    63   61   64 1   
    64   61   69 1   
    65   62   63 2   
    66   62   74 1   
    67   64   65 1   
    68   64   70 1   
    69   64   71 1   
    70   65   66 1   
    71   65   67 2   
    72   66   72 1   
    73   66   73 1   
    74   74   75 1   
    75   74   78 1   
    76   75   76 1   
    77   75   79 1   
    78   75   80 1   
    79   76   77 2   
    80   76   81 1   
    81   81   82 1   
    82   81   93 1   
    83   82   83 1   
    84   82   85 1   
    85   82   94 1   
    86   83   84 2   
    87   83  102 1   
    88   85   86 1   
    89   85   95 1   
    90   85   96 1   
    91   86   87 ar  
    92   86   88 ar  
    93   87   89 ar  
    94   87   97 1   
    95   88   90 ar  
    96   88   98 1   
    97   89   91 ar  
    98   89   99 1   
    99   90   91 ar  
   100   90  100 1   
   101   91   92 1   
   102   92  101 1   
   103  102  103 1   
   104  102  110 1   
   105  103  104 1   
   106  103  106 1   
   107  103  111 1   
   108  104  105 2   
   109  104  121 1   
   110  106  107 1   
   111  106  108 1   
   112  106  112 1   
   113  107  109 1   
   114  107  113 1   
   115  107  114 1   
   116  108  115 1   
   117  108  116 1   
   118  108  117 1   
   119  109  118 1   
   120  109  119 1   
   121  109  120 1   
   122  121  122 1   
   123  121  127 1   
   124  122  123 1   
   125  122  125 1   
   126  122  128 1   
   127  123  124 2   
   128  123  132 1   
   129  125  126 1   
   130  125  129 1   
   131  125  130 1   
   132  126  131 1   
   133  132  133 1   
   134  132  137 1   
   135  133  134 1   
   136  133  136 1   
   137  133  138 1   
   138  134  135 2   
   139  134  142 1   
   140  136  139 1   
   141  136  140 1   
   142  136  141 1   
   143  142  143 1   
   144  142  147 1   
   145  143  144 1   
   146  143  146 1   
   147  143  148 1   
   148  144  145 2   
   149  144  152 1   
   150  146  149 1   
   151  146  150 1   
   152  146  151 1   
   153  152  153 1   
   154  152  161 1   
   155  153  154 1   
   156  153  156 1   
   157  153  162 1   
   158  154  155 2   
   159  154  167 1   
   160  156  157 1   
   161  156  163 1   
   162  156  164 1   
   163  157  158 1   
   164  157  165 1   
   165  157  166 1   
   166  158  159 1   
   167  158  160 1   
   168  167  168 1   
   169  167  172 1   
   170  168  169 1   
   171  168  170 1   
   172  168  171 1   
   173  174  175 1   
   174  174  176 1   
   175  177  178 1   
   176  177  179 1   
@<TRIPOS>SUBSTRUCTURE
     1 MOL         1 TEMP              0 ****  ****    0 ROOT
