@<TRIPOS>MOLECULE
MOL
  179   176     1     0     0
SMALL
resp


@<TRIPOS>ATOM
      1 C1          1.4000    3.0780    6.2200 c3        1 MOL     -0.261845
      2 C2          0.9940    2.6820    4.8120 c         1 MOL      0.773247
      3 O1          1.8260    2.4700    3.9940 o         1 MOL     -0.605287
      4 H1          0.7120    3.8340    6.5970 hc        1 MOL      0.066275
      5 H2          1.3680    2.2010    6.8670 hc        1 MOL      0.066275
      6 H3          2.4130    3.4820    6.2060 hc        1 MOL      0.066275
      7 N1         -0.3190    2.6520    4.4220 n         1 MOL     -0.636673
      8 C3         -0.7540    2.2980    3.0540 c3        1 MOL      0.004501
      9 C4         -0.7160    3.5840    2.2400 c         1 MOL      0.581679
     10 O2         -1.5240    4.4930    2.4080 o         1 MOL     -0.553168
     11 C5         -2.1410    1.7330    3.1220 c3        1 MOL      0.044208
     12 C6         -2.7120    1.2220    1.7550 c         1 MOL      0.452262
     13 O3         -2.0730    1.4950    0.7090 o         1 MOL     -0.650129
     14 O4         -3.8230    0.5970    1.6850 o         1 MOL     -0.650129
     15 H4         -1.0050    2.5720    5.1560 hn        1 MOL      0.314406
     16 H5         -0.0690    1.5870    2.6050 h1        1 MOL      0.050831
     17 H6         -2.7050    2.5620    3.5290 hc        1 MOL      0.025256
     18 H7         -2.2550    0.9580    3.8920 hc        1 MOL      0.025256
     19 N2          0.2660    3.7330    1.3400 n         1 MOL     -0.227657
     20 C7          0.6390    5.0030    0.5810 c3        1 MOL     -0.133449
     21 C8         -0.4300    5.3990   -0.4220 c         1 MOL      0.635968
     22 O5         -0.2280    6.4340   -0.9600 o         1 MOL     -0.569352
     23 C9          2.0580    4.7500    0.0360 c3        1 MOL     -0.213909
     24 C10         2.8270    6.0830   -0.0610 c3        1 MOL      0.102660
     25 C11         4.0970    5.7570   -0.7660 c3        1 MOL      0.036380
     26 C12         3.8370    5.4880   -2.2600 c3        1 MOL      0.119244
     27 N3          4.9530    5.8540   -3.1520 n4        1 MOL     -0.415980
     28 H8          0.7280    2.8580    1.1080 hn        1 MOL      0.196935
     29 H9          0.6980    5.8150    1.3060 h1        1 MOL      0.108708
     30 H10         1.9970    4.1920   -0.9050 hc        1 MOL      0.113165
     31 H11         2.6100    4.0760    0.7000 hc        1 MOL      0.113165
     32 H12         3.1260    6.5630    0.8750 hc        1 MOL      0.012229
     33 H13         2.3060    6.7910   -0.7010 hc        1 MOL      0.012229
     34 H14         4.6050    4.9110   -0.3190 hc        1 MOL     -0.002780
     35 H15         4.7480    6.6320   -0.6700 hc        1 MOL     -0.002780
     36 H16         2.9540    6.0400   -2.5870 hx        1 MOL      0.033321
     37 H17         3.7170    4.4000   -2.3260 hx        1 MOL      0.033321
     38 H18         4.9980    6.8600   -3.0150 hn        1 MOL      0.340663
     39 H19         5.7890    5.4140   -2.8020 hn        1 MOL      0.340663
     40 H20         4.7810    5.6770   -4.1330 hn        1 MOL      0.340663
     41 N4         -1.5070    4.6470   -0.6050 n         1 MOL     -0.261186
     42 C13        -2.6830    5.1110   -1.3360 c3        1 MOL     -0.114818
     43 C14        -4.0400    4.6460   -0.7390 c         1 MOL      0.473321
     44 O6         -5.1050    4.8130   -1.3440 o         1 MOL     -0.520060
     45 C15        -2.6050    4.8170   -2.8820 c3        1 MOL     -0.109305
     46 C16        -2.3450    3.3690   -3.2670 c         1 MOL      0.659500
     47 O7         -2.3380    2.4550   -2.4080 o         1 MOL     -0.715008
     48 O8         -2.1790    3.1460   -4.5240 o         1 MOL     -0.715008
     49 H21        -1.5080    3.8010   -0.0550 hn        1 MOL      0.043557
     50 H22        -2.6630    6.1930   -1.2900 h1        1 MOL      0.120233
     51 H23        -1.8140    5.4760   -3.2590 hc        1 MOL      0.052554
     52 H24        -3.5380    5.0690   -3.3720 hc        1 MOL      0.052554
     53 N5         -4.0460    4.0260    0.4530 n         1 MOL     -0.228702
     54 C17        -5.2410    3.6380    1.2030 c3        1 MOL      0.090489
     55 C18        -6.1700    2.6800    0.5500 c         1 MOL      0.439581
     56 O9         -7.3760    2.8870    0.6780 o         1 MOL     -0.550561
     57 H25        -3.1610    3.8410    0.8960 hn        1 MOL      0.158166
     58 H26        -5.7810    4.4940    1.5890 h1        1 MOL      0.035028
     59 H27        -4.8960    3.1290    2.1040 h1        1 MOL      0.035028
     60 N6         -5.6710    1.7900   -0.3270 n         1 MOL     -0.142160
     61 C19        -6.5130    0.7920   -1.0340 c3        1 MOL     -0.033050
     62 C20        -6.7680   -0.5220   -0.2260 c         1 MOL      0.289734
     63 O10        -7.6430   -1.2630   -0.6850 o         1 MOL     -0.477804
     64 C21        -5.9280    0.4710   -2.3920 c3        1 MOL     -0.369605
     65 C22        -4.8740   -0.5910   -2.3940 c         1 MOL      0.618331
     66 N7         -4.6300   -1.3850   -3.3840 n         1 MOL     -0.639742
     67 O11        -4.0220   -0.5750   -1.5420 o         1 MOL     -0.665468
     68 H28        -4.6770    1.6080   -0.3660 hn        1 MOL      0.174258
     69 H29        -7.4680    1.2170   -1.3370 h1        1 MOL      0.152033
     70 H30        -5.4860    1.3770   -2.8260 hc        1 MOL      0.156744
     71 H31        -6.7650    0.2030   -3.0350 hc        1 MOL      0.156744
     72 H32        -5.2140   -1.4180   -4.2020 hn        1 MOL      0.320038
     73 H33        -3.7800   -1.9100   -3.5370 hn        1 MOL      0.320038
     74 N8         -6.0700   -0.8130    0.8950 n         1 MOL     -0.111274
     75 C23        -6.0810   -1.9580    1.7890 c3        1 MOL     -0.256543
     76 C24        -4.8020   -2.8630    1.7390 c         1 MOL      0.641287
     77 O12        -4.7480   -3.8380    2.4770 o         1 MOL     -0.593568
     78 H34        -5.3240   -0.1370    1.0220 hn        1 MOL      0.169798
     79 H35        -6.9430   -2.6020    1.6420 h1        1 MOL      0.132137
     80 H36        -6.1400   -1.6550    2.8360 h1        1 MOL      0.132137
     81 N9         -3.9830   -2.6570    0.7890 n         1 MOL     -0.547227
     82 C25        -2.8900   -3.5600    0.4530 c3        1 MOL      0.289161
     83 C26        -1.5500   -2.8410    0.3930 c         1 MOL      0.420717
     84 O13        -1.4030   -1.8080   -0.3400 o         1 MOL     -0.562173
     85 C27        -3.1780   -4.4890   -0.7970 c3        1 MOL     -0.049733
     86 C28        -4.5940   -5.0660   -0.6650 ca        1 MOL      0.026804
     87 C29        -5.7090   -4.3300   -1.1180 ca        1 MOL     -0.230146
     88 C30        -4.6930   -6.2850   -0.0280 ca        1 MOL     -0.230146
     89 C31        -6.9610   -4.8070   -0.8490 ca        1 MOL     -0.141722
     90 C32        -5.9570   -6.8770    0.1350 ca        1 MOL     -0.141722
     91 C33        -7.1030   -6.1520   -0.3810 ca        1 MOL      0.222738
     92 O14        -8.3730   -6.5520   -0.3270 oh        1 MOL     -0.449203
     93 H37        -4.2700   -1.9830    0.0970 hn        1 MOL      0.489502
     94 H38        -2.7820   -4.2020    1.3290 h1        1 MOL      0.036909
     95 H39        -2.4300   -5.2750   -0.8700 hc        1 MOL      0.007309
     96 H40        -3.2010   -3.8410   -1.6780 hc        1 MOL      0.007309
     97 H41        -5.6660   -3.4590   -1.7470 ha        1 MOL      0.145446
     98 H42        -3.8010   -6.7960    0.3170 ha        1 MOL      0.145446
     99 H43        -7.8500   -4.2690   -1.1480 ha        1 MOL      0.117907
    100 H44        -6.0860   -7.8240    0.6340 ha        1 MOL      0.117907
    101 H45        -8.5460   -7.4790   -0.1340 ho        1 MOL      0.368264
    102 N10        -0.5880   -3.3990    1.1740 n         1 MOL     -0.565331
    103 C34         0.7500   -2.7900    1.3080 c3        1 MOL      0.080733
    104 C35         1.8410   -3.5970    0.5960 c         1 MOL      0.599227
    105 O15         1.9510   -4.7770    0.8890 o         1 MOL     -0.592243
    106 C36         1.1150   -2.3620    2.7290 c3        1 MOL      0.396006
    107 C37        -0.0210   -1.5150    3.3600 c3        1 MOL      0.259687
    108 C38         2.5270   -1.7020    2.9030 c3        1 MOL     -0.520391
    109 C39         0.3090   -0.9700    4.7670 c3        1 MOL     -0.577325
    110 H46        -0.8000   -4.2400    1.6850 hn        1 MOL      0.319462
    111 H47         0.6170   -1.8820    0.7160 h1        1 MOL     -0.033307
    112 H48         1.1930   -3.2700    3.3260 hc        1 MOL     -0.086207
    113 H49        -0.8990   -2.1460    3.4940 hc        1 MOL     -0.038026
    114 H50        -0.2840   -0.7710    2.6220 hc        1 MOL     -0.038026
    115 H51         2.4150   -0.6960    2.4990 hc        1 MOL      0.101493
    116 H52         2.7410   -1.6270    3.9650 hc        1 MOL      0.101493
    117 H53         3.2400   -2.2960    2.3420 hc        1 MOL      0.101493
    118 H54         1.0400   -0.1580    4.7090 hc        1 MOL      0.141798
    119 H55        -0.5580   -0.4940    5.2010 hc        1 MOL      0.141798
    120 H56         0.8150   -1.7190    5.3750 hc        1 MOL      0.141798
    121 N11         2.5810   -3.0040   -0.2900 n         1 MOL     -0.303954
    122 C40         3.5880   -3.6640   -1.1100 c3        1 MOL      0.039498
    123 C41         5.0210   -3.6130   -0.4710 c         1 MOL      0.434159
    124 O16         5.3570   -2.8030    0.3860 o         1 MOL     -0.318771
    125 C42         3.6600   -3.0540   -2.5060 c3        1 MOL     -0.471793
    126 O17         4.3950   -1.8090   -2.4880 oh        1 MOL     -0.337185
    127 H57         2.3030   -2.0620   -0.5400 hn        1 MOL      0.291691
    128 H58         3.2900   -4.7010   -1.3050 h1        1 MOL      0.087576
    129 H59         2.6220   -2.9310   -2.8030 h1        1 MOL      0.206770
    130 H60         4.1870   -3.8260   -3.0620 h1        1 MOL      0.206770
    131 H61         4.3320   -1.3370   -3.3220 ho        1 MOL      0.376114
    132 N12         5.9420   -4.4910   -0.9800 n         1 MOL     -0.541737
    133 C43         7.3940   -4.5130   -0.6300 c3        1 MOL      0.185875
    134 C44         7.9800   -3.0940   -0.6950 c         1 MOL      0.469718
    135 O18         8.5710   -2.6130    0.2530 o         1 MOL     -0.513913
    136 C45         8.2120   -5.4250   -1.6370 c3        1 MOL     -0.359593
    137 H62         5.6980   -5.0550   -1.7750 hn        1 MOL      0.321826
    138 H63         7.5500   -4.8230    0.4020 h1        1 MOL      0.077086
    139 H64         8.2220   -5.0550   -2.6540 hc        1 MOL      0.105706
    140 H65         9.2360   -5.5160   -1.2760 hc        1 MOL      0.105706
    141 H66         7.7120   -6.3990   -1.6930 hc        1 MOL      0.105706
    142 N13         7.7590   -2.3320   -1.7750 n         1 MOL     -0.368053
    143 C46         8.1680   -0.9450   -1.8340 c3        1 MOL      0.066266
    144 C47         7.4040    0.0450   -0.9050 c         1 MOL      0.383553
    145 O19         8.0110    0.9840   -0.4640 o         1 MOL     -0.525197
    146 C48         7.9460   -0.4520   -3.2160 c3        1 MOL     -0.177481
    147 H67         7.2100   -2.7090   -2.5380 hn        1 MOL      0.239421
    148 H68         9.2150   -1.0280   -1.5170 h1        1 MOL      0.108130
    149 H69         8.4840   -1.1300   -3.8830 hc        1 MOL      0.045819
    150 H70         6.8750   -0.5700   -3.3900 hc        1 MOL      0.045819
    151 H71         8.3550    0.5390   -3.4160 hc        1 MOL      0.045819
    152 N14         6.1260   -0.1950   -0.5990 n         1 MOL     -0.025305
    153 C49         5.4110    0.5580    0.4570 c3        1 MOL     -0.270331
    154 C50         5.9200    0.2820    1.9340 c         1 MOL      0.500576
    155 O20         5.8800    1.2670    2.6860 o         1 MOL     -0.542040
    156 C51         3.8520    0.3580    0.4230 c3        1 MOL      0.069554
    157 C52         3.1740    0.9650   -0.8780 c3        1 MOL     -0.257993
    158 C53         1.6930    0.6170   -0.9210 c         1 MOL      0.668274
    159 O21         0.8410    1.3380   -0.3520 o         1 MOL     -0.716002
    160 O22         1.2980   -0.3510   -1.5140 o         1 MOL     -0.716002
    161 H72         5.6280   -0.8660   -1.1790 hn        1 MOL      0.043079
    162 H73         5.7060    1.5660    0.1740 h1        1 MOL      0.125781
    163 H74         3.4550    0.7730    1.3440 hc        1 MOL      0.094629
    164 H75         3.6820   -0.7190    0.4800 hc        1 MOL      0.094629
    165 H76         3.5540    0.5050   -1.7910 hc        1 MOL      0.036978
    166 H77         3.4050    2.0260   -0.7510 hc        1 MOL      0.036978
    167 N15         6.5040   -0.8870    2.2630 n         1 MOL     -0.091938
    168 C54         7.1890   -1.1440    3.5430 c3        1 MOL     -0.381892
    169 H78         7.7400   -2.0820    3.4770 h1        1 MOL      0.141168
    170 H79         7.8830   -0.3300    3.7540 h1        1 MOL      0.141168
    171 H80         6.4520   -1.2100    4.3430 h1        1 MOL      0.141168
    172 H81         6.5200   -1.6160    1.5630 hn        1 MOL      0.137188
    173 Ca1        -1.3570    0.4520   -1.4200 Ca        1 MOL      1.750197
    174 O23         0.2460    1.4320   -3.4810 oh        1 MOL     -0.773993
    175 H82         0.6920    2.2680   -3.3550 ho        1 MOL      0.388304
    176 H83        -0.0660    1.4470   -4.3800 ho        1 MOL      0.388304
    177 O24        -1.4840   -1.6390   -3.2540 oh        1 MOL     -0.773993
    178 H84        -1.0970   -2.4220   -2.8540 ho        1 MOL      0.388304
    179 H85        -1.9020   -1.9590   -4.0550 ho        1 MOL      0.388304
@<TRIPOS>BOND
     1    1    2 1   
     2    1    4 1   
     3    1    5 1   
     4    1    6 1   
     5    2    3 2   
     6    2    7 1   
     7    7    8 1   
     8    7   15 1   
     9    8    9 1   
    10    8   11 1   
    11    8   16 1   
    12    9   10 2   
    13    9   19 1   
    14   11   12 1   
    15   11   17 1   
    16   11   18 1   
    17   12   13 1   
    18   12   14 1   
    19   19   20 1   
    20   19   28 1   
    21   20   21 1   
    22   20   23 1   
    23   20   29 1   
    24   21   22 2   
    25   21   41 1   
    26   23   24 1   
    27   23   30 1   
    28   23   31 1   
    29   24   25 1   
    30   24   32 1   
    31   24   33 1   
    32   25   26 1   
    33   25   34 1   
    34   25   35 1   
    35   26   27 1   
    36   26   36 1   
    37   26   37 1   
    38   27   38 1   
    39   27   39 1   
    40   27   40 1   
    41   41   42 1   
    42   41   49 1   
    43   42   43 1   
    44   42   45 1   
    45   42   50 1   
    46   43   44 2   
    47   43   53 1   
    48   45   46 1   
    49   45   51 1   
    50   45   52 1   
    51   46   47 1   
    52   46   48 1   
    53   53   54 1   
    54   53   57 1   
    55   54   55 1   
    56   54   58 1   
    57   54   59 1   
    58   55   56 2   
    59   55   60 1   
    60   60   61 1   
    61   60   68 1   
    62   61   62 1   
    63   61   64 1   
    64   61   69 1   
    65   62   63 2   
    66   62   74 1   
    67   64   65 1   
    68   64   70 1   
    69   64   71 1   
    70   65   66 1   
    71   65   67 2   
    72   66   72 1   
    73   66   73 1   
    74   74   75 1   
    75   74   78 1   
    76   75   76 1   
    77   75   79 1   
    78   75   80 1   
    79   76   77 2   
    80   76   81 1   
    81   81   82 1   
    82   81   93 1   
    83   82   83 1   
    84   82   85 1   
    85   82   94 1   
    86   83   84 2   
    87   83  102 1   
    88   85   86 1   
    89   85   95 1   
    90   85   96 1   
    91   86   87 ar  
    92   86   88 ar  
    93   87   89 ar  
    94   87   97 1   
    95   88   90 ar  
    96   88   98 1   
    97   89   91 ar  
    98   89   99 1   
    99   90   91 ar  
   100   90  100 1   
   101   91   92 1   
   102   92  101 1   
   103  102  103 1   
   104  102  110 1   
   105  103  104 1   
   106  103  106 1   
   107  103  111 1   
   108  104  105 2   
   109  104  121 1   
   110  106  107 1   
   111  106  108 1   
   112  106  112 1   
   113  107  109 1   
   114  107  113 1   
   115  107  114 1   
   116  108  115 1   
   117  108  116 1   
   118  108  117 1   
   119  109  118 1   
   120  109  119 1   
   121  109  120 1   
   122  121  122 1   
   123  121  127 1   
   124  122  123 1   
   125  122  125 1   
   126  122  128 1   
   127  123  124 2   
   128  123  132 1   
   129  125  126 1   
   130  125  129 1   
   131  125  130 1   
   132  126  131 1   
   133  132  133 1   
   134  132  137 1   
   135  133  134 1   
   136  133  136 1   
   137  133  138 1   
   138  134  135 2   
   139  134  142 1   
   140  136  139 1   
   141  136  140 1   
   142  136  141 1   
   143  142  143 1   
   144  142  147 1   
   145  143  144 1   
   146  143  146 1   
   147  143  148 1   
   148  144  145 2   
   149  144  152 1   
   150  146  149 1   
   151  146  150 1   
   152  146  151 1   
   153  152  153 1   
   154  152  161 1   
   155  153  154 1   
   156  153  156 1   
   157  153  162 1   
   158  154  155 2   
   159  154  167 1   
   160  156  157 1   
   161  156  163 1   
   162  156  164 1   
   163  157  158 1   
   164  157  165 1   
   165  157  166 1   
   166  158  159 1   
   167  158  160 1   
   168  167  168 1   
   169  167  172 1   
   170  168  169 1   
   171  168  170 1   
   172  168  171 1   
   173  174  175 1   
   174  174  176 1   
   175  177  178 1   
   176  177  179 1   
@<TRIPOS>SUBSTRUCTURE
     1 MOL         1 TEMP              0 ****  ****    0 ROOT
