@<TRIPOS>MOLECULE
MOL
  182   178     1     0     0
SMALL
resp


@<TRIPOS>ATOM
      1 C1          0.7370    2.8400    6.4050 c3        1 MOL     -0.373851
      2 C2          0.5830    2.6110    4.9040 c         1 MOL      0.789386
      3 O1          1.4770    2.7940    4.1040 o         1 MOL     -0.610232
      4 H1          1.0440    1.9100    6.8850 hc        1 MOL      0.094503
      5 H2          1.4940    3.6050    6.5810 hc        1 MOL      0.094503
      6 H3         -0.2150    3.1660    6.8230 hc        1 MOL      0.094503
      7 N1         -0.5570    2.0500    4.4970 n         1 MOL     -0.688436
      8 C3         -0.9830    2.1920    3.1220 c3        1 MOL      0.095803
      9 C4         -0.9820    3.6540    2.6110 c         1 MOL      0.489721
     10 O2         -1.7760    4.4870    3.1050 o         1 MOL     -0.555911
     11 C5         -2.3290    1.5000    3.1290 c3        1 MOL     -0.088003
     12 C6         -2.9740    1.3650    1.7490 c         1 MOL      0.637027
     13 O3         -4.1590    1.0000    1.6560 o         1 MOL     -0.656277
     14 O4         -2.2720    1.6470    0.7810 o         1 MOL     -0.656277
     15 H4         -1.2940    2.0710    5.1880 hn        1 MOL      0.329231
     16 H5         -0.2840    1.5670    2.5650 h1        1 MOL      0.051239
     17 H6         -3.1190    1.9500    3.7450 hc        1 MOL      0.036430
     18 H7         -2.1900    0.5340    3.6200 hc        1 MOL      0.036430
     19 N2         -0.1030    3.9600    1.6650 n         1 MOL     -0.059665
     20 C7          0.1020    5.3160    1.1260 c3        1 MOL     -0.356001
     21 C8         -1.0700    5.7910    0.1780 c         1 MOL      0.657686
     22 O5         -1.2180    7.0120    0.0510 o         1 MOL     -0.577484
     23 C9          1.5410    5.4430    0.5190 c3        1 MOL     -0.058904
     24 C10         1.4900    5.1570   -0.9800 c3        1 MOL     -0.092707
     25 C11         2.9370    5.2030   -1.5850 c3        1 MOL      0.012842
     26 C12         3.8390    6.3490   -1.2370 c3        1 MOL     -0.002064
     27 N3          3.4130    7.6190   -1.8960 n4        1 MOL     -0.396488
     28 H8          0.4580    3.2090    1.2650 hn        1 MOL      0.131613
     29 H9          0.1000    6.0590    1.9220 h1        1 MOL      0.153310
     30 H10         2.1900    4.7700    1.0780 hc        1 MOL      0.065273
     31 H11         2.0700    6.3990    0.6110 hc        1 MOL      0.065273
     32 H12         0.9720    5.9210   -1.5580 hc        1 MOL      0.063730
     33 H13         0.9590    4.2120   -1.0510 hc        1 MOL      0.063730
     34 H14         2.8100    5.2300   -2.6690 hc        1 MOL      0.028155
     35 H15         3.4530    4.2780   -1.2980 hc        1 MOL      0.028155
     36 H16         4.8310    6.0800   -1.5930 hx        1 MOL      0.095956
     37 H17         3.9250    6.3860   -0.1450 hx        1 MOL      0.095956
     38 H18         3.3410    7.4780   -2.8900 hn        1 MOL      0.336886
     39 H19         2.5550    7.9960   -1.5210 hn        1 MOL      0.336886
     40 H20         4.0210    8.4100   -1.7740 hn        1 MOL      0.336886
     41 N4         -1.8910    4.8840   -0.3840 n         1 MOL     -0.498982
     42 C13        -2.7930    5.2530   -1.4940 c3        1 MOL      0.047272
     43 C14        -4.1400    4.5050   -1.4290 c         1 MOL      0.488532
     44 O6         -5.0030    4.4590   -2.3010 o         1 MOL     -0.518434
     45 C15        -2.0920    5.0130   -2.8180 c3        1 MOL     -0.241458
     46 C16        -1.7400    3.4980   -3.0700 c         1 MOL      0.749308
     47 O7         -1.2800    3.1490   -4.1430 o         1 MOL     -0.696282
     48 O8         -1.7990    2.5580   -2.2580 o         1 MOL     -0.696282
     49 H21        -1.7910    3.8890   -0.2250 hn        1 MOL      0.263338
     50 H22        -2.9480    6.3330   -1.4900 h1        1 MOL      0.115943
     51 H23        -1.1640    5.5840   -2.8670 hc        1 MOL      0.061400
     52 H24        -2.7360    5.4310   -3.5890 hc        1 MOL      0.061400
     53 N5         -4.4050    3.9710   -0.2020 n         1 MOL     -0.365838
     54 C17        -5.7370    3.6680    0.2630 c3        1 MOL     -0.059718
     55 C18        -6.5010    2.5310   -0.4360 c         1 MOL      0.486627
     56 O9         -7.7130    2.5200   -0.2790 o         1 MOL     -0.574972
     57 H25        -3.6400    4.0160    0.4570 hn        1 MOL      0.273294
     58 H26        -6.3100    4.5930    0.1740 h1        1 MOL      0.087728
     59 H27        -5.7740    3.4640    1.3340 h1        1 MOL      0.087728
     60 N6         -5.8140    1.6200   -1.1020 n         1 MOL     -0.125342
     61 C19        -6.4250    0.3850   -1.7110 c3        1 MOL     -0.088970
     62 C20        -6.5870   -0.8000   -0.6800 c         1 MOL      0.379385
     63 O10        -7.0640   -1.8430   -1.0130 o         1 MOL     -0.446553
     64 C21        -5.4380   -0.0540   -2.7980 c3        1 MOL     -0.296138
     65 C22        -4.3190   -0.9820   -2.3730 c         1 MOL      0.635261
     66 N7         -4.3310   -2.0940   -3.1030 n         1 MOL     -0.756403
     67 O11        -3.5800   -0.6890   -1.4720 o         1 MOL     -0.530385
     68 H28        -4.8200    1.5780   -0.9240 hn        1 MOL      0.094467
     69 H29        -7.4370    0.6000   -2.0480 h1        1 MOL      0.151860
     70 H30        -4.9150    0.7510   -3.3080 hc        1 MOL      0.108816
     71 H31        -6.0690   -0.6220   -3.4860 hc        1 MOL      0.108816
     72 H32        -4.7930   -2.1060   -4.0040 hn        1 MOL      0.359121
     73 H33        -3.5380   -2.7060   -3.0190 hn        1 MOL      0.359121
     74 N8         -6.2160   -0.5350    0.5890 n         1 MOL     -0.137536
     75 C23        -6.2700   -1.5810    1.6110 c3        1 MOL     -0.368804
     76 C24        -5.1900   -2.6210    1.7030 c         1 MOL      0.565081
     77 O12        -5.4980   -3.7570    2.0740 o         1 MOL     -0.500078
     78 H34        -5.7090    0.3150    0.7870 hn        1 MOL      0.231203
     79 H35        -7.1770   -2.1380    1.3670 h1        1 MOL      0.150955
     80 H36        -6.2540   -1.1870    2.6320 h1        1 MOL      0.150955
     81 N9         -3.9990   -2.2830    1.1520 n         1 MOL     -0.454610
     82 C25        -2.8630   -3.2530    1.0620 c3        1 MOL      0.395890
     83 C26        -1.4220   -2.6140    1.1610 c         1 MOL      0.328446
     84 O13        -1.3610   -1.4360    0.7890 o         1 MOL     -0.552254
     85 C27        -2.8720   -4.0720   -0.2280 c3        1 MOL     -0.031487
     86 C28        -3.9610   -5.1040   -0.2860 ca        1 MOL     -0.070174
     87 C29        -5.1380   -4.7770   -0.9570 ca        1 MOL     -0.121052
     88 C30        -3.7370   -6.4470    0.1200 ca        1 MOL     -0.121052
     89 C31        -6.1620   -5.7210   -1.0940 ca        1 MOL     -0.238203
     90 C32        -4.6580   -7.4390   -0.2230 ca        1 MOL     -0.238203
     91 C33        -5.9030   -7.1010   -0.7380 ca        1 MOL      0.345136
     92 O14        -6.8840   -8.0200   -0.8900 oh        1 MOL     -0.538474
     93 H37        -3.9180   -1.3770    0.7220 hn        1 MOL      0.257303
     94 H38        -2.9200   -3.8800    1.9540 h1        1 MOL     -0.031070
     95 H39        -1.9350   -4.6190   -0.3100 hc        1 MOL      0.018027
     96 H40        -2.8170   -3.4100   -1.0920 hc        1 MOL      0.018027
     97 H41        -5.3710   -3.7500   -1.1910 ha        1 MOL      0.118484
     98 H42        -2.7590   -6.7260    0.4930 ha        1 MOL      0.118484
     99 H43        -7.1020   -5.4540   -1.5490 ha        1 MOL      0.132557
    100 H44        -4.4480   -8.4820   -0.0290 ha        1 MOL      0.132557
    101 H45        -7.7300   -7.6830   -1.1940 ho        1 MOL      0.401712
    102 N10        -0.3280   -3.3270    1.5990 n         1 MOL     -0.415763
    103 C34         1.0780   -2.9890    1.6890 c3        1 MOL      0.070693
    104 C35         1.8930   -3.9090    0.8860 c         1 MOL      0.457274
    105 O15         1.7530   -5.1490    0.9740 o         1 MOL     -0.552691
    106 C36         1.5720   -3.0280    3.1630 c3        1 MOL      0.080567
    107 C37         0.7720   -1.9950    4.0420 c3        1 MOL     -0.051826
    108 C38         3.0840   -2.8500    3.2630 c3        1 MOL     -0.163523
    109 C39         1.0010   -2.3770    5.5180 c3        1 MOL     -0.211779
    110 H46        -0.5590   -4.2910    1.8060 hn        1 MOL      0.258587
    111 H47         1.1620   -1.9830    1.2610 h1        1 MOL      0.083168
    112 H48         1.2770   -3.9900    3.5810 hc        1 MOL      0.023231
    113 H49        -0.3120   -2.0100    3.9140 hc        1 MOL      0.069972
    114 H50         1.0660   -0.9640    3.8420 hc        1 MOL      0.069972
    115 H51         3.3100   -1.9800    2.6520 hc        1 MOL      0.036582
    116 H52         3.3490   -2.6660    4.3070 hc        1 MOL      0.036582
    117 H53         3.6160   -3.7000    2.8350 hc        1 MOL      0.036582
    118 H54         2.0400   -2.4080    5.8610 hc        1 MOL      0.058115
    119 H55         0.5470   -1.7100    6.2550 hc        1 MOL      0.058115
    120 H56         0.4700   -3.3030    5.7160 hc        1 MOL      0.058115
    121 N11         2.9010   -3.3780    0.1650 n         1 MOL     -0.059232
    122 C40         3.8370   -4.0380   -0.7430 c3        1 MOL      0.011640
    123 C41         5.3300   -3.6180   -0.4670 c         1 MOL      0.415910
    124 O16         5.5690   -2.6820    0.3350 o         1 MOL     -0.389185
    125 C42         3.4140   -3.9630   -2.2590 c3        1 MOL      0.201046
    126 O17         2.6410   -2.8510   -2.5240 oh        1 MOL     -0.586932
    127 H57         3.0540   -2.3900    0.3000 hn        1 MOL      0.064931
    128 H58         3.8320   -5.1050   -0.5090 h1        1 MOL      0.036902
    129 H59         2.7310   -4.8130   -2.3320 h1        1 MOL      0.018897
    130 H60         4.2080   -4.1750   -2.9820 h1        1 MOL      0.018897
    131 H61         3.2340   -2.1210   -2.7050 ho        1 MOL      0.378347
    132 N12         6.2890   -4.2250   -1.2300 n         1 MOL     -0.462833
    133 C43         7.7660   -3.9000   -1.1320 c3        1 MOL      0.112983
    134 C44         8.0720   -2.3740   -1.1220 c         1 MOL      0.454587
    135 O18         8.3270   -1.8360   -0.0690 o         1 MOL     -0.494762
    136 C45         8.3910   -4.7200   -2.2790 c3        1 MOL     -0.217537
    137 H62         6.0130   -4.9490   -1.8700 hn        1 MOL      0.289779
    138 H63         8.2230   -4.2810   -0.2210 h1        1 MOL      0.093292
    139 H64         8.0670   -4.2880   -3.2290 hc        1 MOL      0.066518
    140 H65         9.4690   -4.7290   -2.3990 hc        1 MOL      0.066518
    141 H66         8.0500   -5.7560   -2.2150 hc        1 MOL      0.066518
    142 N13         7.9110   -1.6680   -2.2370 n         1 MOL     -0.358420
    143 C46         8.1920   -0.2270   -2.3080 c3        1 MOL     -0.000982
    144 C47         7.3220    0.6550   -1.3870 c         1 MOL      0.467779
    145 O19         7.7890    1.6890   -0.9340 o         1 MOL     -0.510829
    146 C48         8.0470    0.2730   -3.7110 c3        1 MOL     -0.249752
    147 H67         7.5890   -2.1020   -3.0860 hn        1 MOL      0.269141
    148 H68         9.2390   -0.0470   -2.0540 h1        1 MOL      0.133329
    149 H69         8.0990    1.3570   -3.8260 hc        1 MOL      0.075453
    150 H70         8.7130   -0.1680   -4.4570 hc        1 MOL      0.075453
    151 H71         7.0730    0.0210   -4.1290 hc        1 MOL      0.075453
    152 N14         6.1260    0.2160   -0.9780 n         1 MOL     -0.251942
    153 C49         5.3870    0.9400    0.0340 c3        1 MOL     -0.241392
    154 C50         5.9000    0.8130    1.4910 c         1 MOL      0.569752
    155 O20         5.9240    1.8160    2.1880 o         1 MOL     -0.560020
    156 C51         3.9410    0.5750   -0.1570 c3        1 MOL      0.170805
    157 C52         2.8970    1.3490    0.5890 c3        1 MOL      0.112264
    158 C53         1.5380    0.9420    0.1690 c         1 MOL      0.783343
    159 O21         1.3520   -0.2120   -0.2010 o         1 MOL     -0.761819
    160 O22         0.6710    1.8160    0.0030 o         1 MOL     -0.761819
    161 H72         5.7580   -0.6510   -1.3310 hn        1 MOL      0.182200
    162 H73         5.4790    1.9810   -0.2770 h1        1 MOL      0.121788
    163 H74         3.8940   -0.3850    0.3610 hc        1 MOL     -0.079144
    164 H75         3.7310    0.4440   -1.2180 hc        1 MOL     -0.079144
    165 H76         3.1670    2.3910    0.4080 hc        1 MOL     -0.007440
    166 H77         2.9890    1.2120    1.6720 hc        1 MOL     -0.007440
    167 N15         6.2120   -0.3890    1.9650 n         1 MOL     -0.103760
    168 C54         6.8270   -0.5960    3.2790 c3        1 MOL     -0.331564
    169 H78         6.7760   -1.6520    3.5420 h1        1 MOL      0.124410
    170 H79         7.8700   -0.2800    3.2470 h1        1 MOL      0.124410
    171 H80         6.2930   -0.0090    4.0270 h1        1 MOL      0.124410
    172 H81         6.0130   -1.2530    1.4760 hn        1 MOL      0.167075
    173 Ca1        -1.1190    0.3760   -1.1320 Ca        1 MOL      1.690561
    174 O23        -0.5820   -2.1230   -2.2770 oh        1 MOL     -0.783467
    175 H82        -1.0660   -2.8640   -2.6420 ho        1 MOL      0.377616
    176 H83         0.3380   -2.3340   -2.4280 ho        1 MOL      0.377616
    177 O24        -1.8530    0.2860   -3.6810 oh        1 MOL     -0.783467
    178 H84        -1.8900    0.0490   -4.6070 ho        1 MOL      0.377616
    179 H85        -1.7110    1.2340   -3.6790 ho        1 MOL      0.377616
    180 O25         1.2290    0.4520   -2.7710 oh        1 MOL     -0.783467
    181 H86         1.2570   -0.1630   -3.5030 ho        1 MOL      0.377616
    182 H87         1.6480   -0.0180   -2.0470 ho        1 MOL      0.377616
@<TRIPOS>BOND
     1    1    2 1   
     2    1    4 1   
     3    1    5 1   
     4    1    6 1   
     5    2    3 2   
     6    2    7 1   
     7    7    8 1   
     8    7   15 1   
     9    8    9 1   
    10    8   11 1   
    11    8   16 1   
    12    9   10 2   
    13    9   19 1   
    14   11   12 1   
    15   11   17 1   
    16   11   18 1   
    17   12   13 1   
    18   12   14 1   
    19   19   20 1   
    20   19   28 1   
    21   20   21 1   
    22   20   23 1   
    23   20   29 1   
    24   21   22 2   
    25   21   41 1   
    26   23   24 1   
    27   23   30 1   
    28   23   31 1   
    29   24   25 1   
    30   24   32 1   
    31   24   33 1   
    32   25   26 1   
    33   25   34 1   
    34   25   35 1   
    35   26   27 1   
    36   26   36 1   
    37   26   37 1   
    38   27   38 1   
    39   27   39 1   
    40   27   40 1   
    41   41   42 1   
    42   41   49 1   
    43   42   43 1   
    44   42   45 1   
    45   42   50 1   
    46   43   44 2   
    47   43   53 1   
    48   45   46 1   
    49   45   51 1   
    50   45   52 1   
    51   46   47 1   
    52   46   48 1   
    53   53   54 1   
    54   53   57 1   
    55   54   55 1   
    56   54   58 1   
    57   54   59 1   
    58   55   56 2   
    59   55   60 1   
    60   60   61 1   
    61   60   68 1   
    62   61   62 1   
    63   61   64 1   
    64   61   69 1   
    65   62   63 2   
    66   62   74 1   
    67   64   65 1   
    68   64   70 1   
    69   64   71 1   
    70   65   66 1   
    71   65   67 2   
    72   66   72 1   
    73   66   73 1   
    74   74   75 1   
    75   74   78 1   
    76   75   76 1   
    77   75   79 1   
    78   75   80 1   
    79   76   77 2   
    80   76   81 1   
    81   81   82 1   
    82   81   93 1   
    83   82   83 1   
    84   82   85 1   
    85   82   94 1   
    86   83   84 2   
    87   83  102 1   
    88   85   86 1   
    89   85   95 1   
    90   85   96 1   
    91   86   87 ar  
    92   86   88 ar  
    93   87   89 ar  
    94   87   97 1   
    95   88   90 ar  
    96   88   98 1   
    97   89   91 ar  
    98   89   99 1   
    99   90   91 ar  
   100   90  100 1   
   101   91   92 1   
   102   92  101 1   
   103  102  103 1   
   104  102  110 1   
   105  103  104 1   
   106  103  106 1   
   107  103  111 1   
   108  104  105 2   
   109  104  121 1   
   110  106  107 1   
   111  106  108 1   
   112  106  112 1   
   113  107  109 1   
   114  107  113 1   
   115  107  114 1   
   116  108  115 1   
   117  108  116 1   
   118  108  117 1   
   119  109  118 1   
   120  109  119 1   
   121  109  120 1   
   122  121  122 1   
   123  121  127 1   
   124  122  123 1   
   125  122  125 1   
   126  122  128 1   
   127  123  124 2   
   128  123  132 1   
   129  125  126 1   
   130  125  129 1   
   131  125  130 1   
   132  126  131 1   
   133  132  133 1   
   134  132  137 1   
   135  133  134 1   
   136  133  136 1   
   137  133  138 1   
   138  134  135 2   
   139  134  142 1   
   140  136  139 1   
   141  136  140 1   
   142  136  141 1   
   143  142  143 1   
   144  142  147 1   
   145  143  144 1   
   146  143  146 1   
   147  143  148 1   
   148  144  145 2   
   149  144  152 1   
   150  146  149 1   
   151  146  150 1   
   152  146  151 1   
   153  152  153 1   
   154  152  161 1   
   155  153  154 1   
   156  153  156 1   
   157  153  162 1   
   158  154  155 2   
   159  154  167 1   
   160  156  157 1   
   161  156  163 1   
   162  156  164 1   
   163  157  158 1   
   164  157  165 1   
   165  157  166 1   
   166  158  159 1   
   167  158  160 1   
   168  167  168 1   
   169  167  172 1   
   170  168  169 1   
   171  168  170 1   
   172  168  171 1   
   173  174  175 1   
   174  174  176 1   
   175  177  178 1   
   176  177  179 1   
   177  180  181 1   
   178  180  182 1   
@<TRIPOS>SUBSTRUCTURE
     1 MOL         1 TEMP              0 ****  ****    0 ROOT
