@<TRIPOS>MOLECULE
MOL
  189   185     1     0     0
SMALL
resp


@<TRIPOS>ATOM
      1 C1          0.8290    2.9080    4.6760 c3        1 MOL     -0.397131
      2 C2          0.0780    2.6320    3.3590 c         1 MOL      0.615701
      3 O1          0.5890    3.0890    2.3090 o         1 MOL     -0.609358
      4 H1          1.4380    2.0420    4.9350 hc        1 MOL      0.102127
      5 H2          1.4720    3.7790    4.5530 hc        1 MOL      0.102127
      6 H3          0.1100    3.0960    5.4730 hc        1 MOL      0.102127
      7 N1         -1.0280    1.9920    3.4510 n         1 MOL     -0.510827
      8 C3         -1.9050    1.5890    2.3520 c3        1 MOL      0.360835
      9 C4         -2.6990    2.8460    1.7930 c         1 MOL      0.384615
     10 O2         -3.9140    3.0040    2.0540 o         1 MOL     -0.451594
     11 C5         -2.7660    0.4180    2.8140 c3        1 MOL     -0.471826
     12 C6         -3.6510   -0.0420    1.6470 c         1 MOL      0.767685
     13 O3         -4.7890   -0.6230    1.9200 o         1 MOL     -0.674144
     14 O4         -3.3090    0.1940    0.4740 o         1 MOL     -0.674144
     15 H4         -1.3950    1.8560    4.3800 hn        1 MOL      0.306261
     16 H5         -1.2600    1.1930    1.5670 h1        1 MOL     -0.020560
     17 H6         -3.3400    0.7100    3.6800 hc        1 MOL      0.124063
     18 H7         -2.0490   -0.4000    2.8910 hc        1 MOL      0.124063
     19 N2         -1.9990    3.7970    1.2030 n         1 MOL     -0.403460
     20 C7         -2.5950    5.0450    0.7450 c3        1 MOL      0.010858
     21 C8         -3.6120    4.9820   -0.3800 c         1 MOL      0.426835
     22 O5         -4.2210    6.0240   -0.7050 o         1 MOL     -0.568353
     23 C9         -1.4760    5.9500    0.3710 c3        1 MOL     -0.081904
     24 C10        -0.7690    6.6350    1.5400 c3        1 MOL      0.211581
     25 C11         0.5080    7.3900    1.1040 c3        1 MOL     -0.023318
     26 C12         1.1260    8.0790    2.4010 c3        1 MOL     -0.195767
     27 N3          2.0660    7.1900    3.1980 n4        1 MOL     -0.191151
     28 H8         -0.9910    3.8190    1.1070 hn        1 MOL      0.299350
     29 H9         -3.1180    5.5150    1.5770 h1        1 MOL      0.084100
     30 H10        -1.9700    6.7400   -0.1940 hc        1 MOL      0.032855
     31 H11        -0.7720    5.4620   -0.2920 hc        1 MOL      0.032855
     32 H12        -0.4130    5.9050    2.2620 hc        1 MOL     -0.039952
     33 H13        -1.5480    7.2570    1.9790 hc        1 MOL     -0.039952
     34 H14         0.2580    8.0810    0.2950 hc        1 MOL      0.040353
     35 H15         1.1080    6.6410    0.5870 hc        1 MOL      0.040353
     36 H16         0.3210    8.4070    3.0540 hx        1 MOL      0.138191
     37 H17         1.7800    8.8420    1.9950 hx        1 MOL      0.138191
     38 H18         2.6470    7.7700    3.7970 hn        1 MOL      0.292147
     39 H19         1.6330    6.5320    3.8350 hn        1 MOL      0.292147
     40 H20         2.6680    6.6280    2.6040 hn        1 MOL      0.292147
     41 N4         -3.8250    3.8400   -1.0300 n         1 MOL     -0.253373
     42 C13        -4.9720    3.7180   -1.9700 c3        1 MOL      0.258047
     43 C14        -6.0790    2.7270   -1.3920 c         1 MOL      0.333993
     44 O6         -7.1730    2.7280   -1.8860 o         1 MOL     -0.538255
     45 C15        -4.5530    3.1790   -3.3450 c3        1 MOL     -0.538838
     46 C16        -3.3370    2.1890   -3.3050 c         1 MOL      0.867485
     47 O7         -3.2240    1.4280   -2.3050 o         1 MOL     -0.723006
     48 O8         -2.4040    2.2180   -4.1000 o         1 MOL     -0.723006
     49 H21        -3.2980    2.9980   -0.8440 hn        1 MOL      0.219707
     50 H22        -5.5320    4.6480   -1.9910 h1        1 MOL      0.077294
     51 H23        -4.3340    4.0800   -3.9150 hc        1 MOL      0.127166
     52 H24        -5.3310    2.6600   -3.8910 hc        1 MOL      0.127166
     53 N5         -5.8390    2.0580   -0.2700 n         1 MOL      0.032764
     54 C17        -6.7960    1.3960    0.5630 c3        1 MOL     -0.127244
     55 C18        -7.2320    0.0400    0.0030 c         1 MOL      0.591057
     56 O9         -8.3270   -0.3670    0.3280 o         1 MOL     -0.609204
     57 H25        -4.9230    2.1220    0.1500 hn        1 MOL     -0.062772
     58 H26        -7.6560    2.0710    0.6700 h1        1 MOL      0.082633
     59 H27        -6.4750    1.1910    1.5860 h1        1 MOL      0.082633
     60 N6         -6.4040   -0.7090   -0.7650 n         1 MOL     -0.270109
     61 C19        -6.8460   -1.9470   -1.4910 c3        1 MOL     -0.053921
     62 C20        -6.7320   -3.2150   -0.6030 c         1 MOL      0.431011
     63 O10        -7.0970   -4.2820   -0.9960 o         1 MOL     -0.520527
     64 C21        -5.9330   -2.0520   -2.8170 c3        1 MOL     -0.236402
     65 C22        -4.3990   -1.9650   -2.5680 c         1 MOL      0.812414
     66 O11        -3.6980   -1.3490   -3.4140 o         1 MOL     -0.746791
     67 O12        -3.9020   -2.2910   -1.5070 o         1 MOL     -0.746791
     68 H28        -5.4260   -0.4700   -0.7430 hn        1 MOL      0.125473
     69 H29        -7.8920   -1.8740   -1.8050 h1        1 MOL      0.133794
     70 H30        -6.2970   -1.2460   -3.4560 hc        1 MOL      0.073585
     71 H31        -6.0630   -2.9430   -3.4270 hc        1 MOL      0.073585
     72 N7         -6.3230   -3.0080    0.7060 n         1 MOL     -0.197726
     73 C23        -6.1950   -4.1020    1.7190 c3        1 MOL     -0.343858
     74 C24        -4.8540   -4.7440    1.6310 c         1 MOL      0.671957
     75 O13        -4.7020   -5.7680    2.2950 o         1 MOL     -0.597445
     76 H32        -6.1080   -2.0570    0.9710 hn        1 MOL      0.266696
     77 H33        -6.8810   -4.9470    1.6260 h1        1 MOL      0.145954
     78 H34        -6.3110   -3.6320    2.6960 h1        1 MOL      0.145954
     79 N8         -3.8920   -4.1740    0.9260 n         1 MOL     -0.323784
     80 C25        -2.4270   -4.6430    0.9720 c3        1 MOL     -0.387224
     81 C26        -1.4510   -3.4930    1.0730 c         1 MOL      0.848349
     82 O14        -1.6060   -2.4940    0.3560 o         1 MOL     -0.731888
     83 C27        -2.0700   -5.5280   -0.2650 c3        1 MOL      0.452146
     84 C28        -2.6990   -6.9270   -0.2610 c3        1 MOL     -0.463031
     85 O15        -2.5580   -4.8830   -1.4200 oh        1 MOL     -0.584972
     86 H35        -4.1420   -3.5070    0.2130 hn        1 MOL      0.254826
     87 H36        -2.3520   -5.3100    1.8260 h1        1 MOL      0.132982
     88 H37        -0.9900   -5.6600   -0.2710 h1        1 MOL     -0.004479
     89 H38        -2.9970   -4.0980   -1.0790 ho        1 MOL      0.413120
     90 H39        -3.7840   -6.7960   -0.2640 hc        1 MOL      0.124260
     91 H40        -2.3240   -7.5630   -1.0650 hc        1 MOL      0.124260
     92 H41        -2.5380   -7.5570    0.6090 hc        1 MOL      0.124260
     93 N9         -0.3930   -3.7020    1.8640 n         1 MOL     -0.615304
     94 C29         0.7590   -2.8050    1.9920 c3        1 MOL      0.197660
     95 C30         1.8700   -3.4130    1.1020 c         1 MOL      0.358237
     96 O16         2.2100   -4.6010    1.3100 o         1 MOL     -0.529713
     97 C31         1.2170   -2.6420    3.4190 c3        1 MOL      0.050688
     98 C32         0.1840   -1.8300    4.2670 c3        1 MOL     -0.057034
     99 C33         2.5470   -1.7960    3.4000 c3        1 MOL     -0.146659
    100 C34         0.4930   -1.8270    5.8030 c3        1 MOL     -0.067519
    101 H42        -0.4490   -4.5000    2.4780 hn        1 MOL      0.317511
    102 H43         0.5340   -1.8500    1.5290 h1        1 MOL      0.083375
    103 H44         1.4000   -3.6270    3.8420 hc        1 MOL      0.037935
    104 H45        -0.8360   -2.2060    4.1410 hc        1 MOL      0.025147
    105 H46         0.1810   -0.7690    4.0330 hc        1 MOL      0.025147
    106 H47         2.3380   -0.8410    2.9050 hc        1 MOL      0.024009
    107 H48         3.0180   -1.5640    4.3590 hc        1 MOL      0.024009
    108 H49         3.3900   -2.3530    3.0070 hc        1 MOL      0.024009
    109 H50         0.3930   -2.7710    6.3280 hc        1 MOL      0.018616
    110 H51         1.4340   -1.3420    6.0580 hc        1 MOL      0.018616
    111 H52        -0.1920   -1.1430    6.3190 hc        1 MOL      0.018616
    112 N10         2.5130   -2.6070    0.1980 n         1 MOL     -0.065000
    113 C35         3.7030   -3.0210   -0.5710 c3        1 MOL      0.015969
    114 C36         5.0550   -2.6220    0.0600 c         1 MOL      0.376207
    115 O17         5.1770   -1.8000    0.9860 o         1 MOL     -0.382361
    116 C37         3.6030   -2.3450   -1.9330 c3        1 MOL      0.083655
    117 C38         2.5420   -2.9980   -2.8200 c3        1 MOL     -0.288860
    118 O18         3.3970   -0.9500   -1.8570 oh        1 MOL     -0.571363
    119 H53         2.2060   -1.6530    0.0570 hn        1 MOL      0.068958
    120 H54         3.7140   -4.1040   -0.6730 h1        1 MOL      0.069915
    121 H55         4.5910   -2.4730   -2.3620 h1        1 MOL      0.086301
    122 H56         2.4540   -0.8260   -1.7170 ho        1 MOL      0.418234
    123 H57         1.6380   -3.1920   -2.2560 hc        1 MOL      0.087214
    124 H58         2.1550   -2.4130   -3.6510 hc        1 MOL      0.087214
    125 H59         3.0390   -3.8610   -3.2600 hc        1 MOL      0.087214
    126 N11         6.1370   -3.1700   -0.5010 n         1 MOL     -0.406104
    127 C39         7.5360   -2.8260   -0.0240 c3        1 MOL      0.040818
    128 C40         7.7810   -1.3260   -0.1100 c         1 MOL      0.336383
    129 O19         8.2550   -0.6780    0.8240 o         1 MOL     -0.470296
    130 C41         8.5460   -3.4820   -0.9190 c3        1 MOL      0.220081
    131 C42         8.6670   -4.9930   -0.7220 c3        1 MOL     -0.324764
    132 O20         8.1790   -3.3860   -2.2100 oh        1 MOL     -0.639704
    133 H60         5.9390   -3.8470   -1.2240 hn        1 MOL      0.315327
    134 H61         7.7870   -3.0110    1.0220 h1        1 MOL      0.113618
    135 H62         9.4750   -2.9430   -0.7130 h1        1 MOL      0.045830
    136 H63         8.8680   -3.7760   -2.7540 ho        1 MOL      0.436260
    137 H64         9.3070   -5.4090   -1.5000 hc        1 MOL      0.093295
    138 H65         9.0650   -5.1770    0.2780 hc        1 MOL      0.093295
    139 H66         7.6880   -5.4550   -0.8560 hc        1 MOL      0.093295
    140 N12         7.2570   -0.7110   -1.1940 n         1 MOL     -0.117687
    141 C43         7.1320    0.6920   -1.4630 c3        1 MOL     -0.092088
    142 C44         6.3410    1.3980   -0.3970 c         1 MOL      0.390851
    143 O21         6.9060    2.2910    0.2040 o         1 MOL     -0.530521
    144 C45         6.4180    0.9690   -2.8130 c3        1 MOL     -0.104112
    145 C46         6.2380    2.4990   -3.0280 c3        1 MOL     -0.111551
    146 C47         5.3900    2.6900   -4.2660 c3        1 MOL     -0.065588
    147 C48         4.9920    4.1310   -4.4960 c3        1 MOL      0.105339
    148 N13         3.9320    4.2380   -5.5570 n4        1 MOL     -0.472127
    149 H67         7.0510   -1.3320   -1.9570 hn        1 MOL      0.159659
    150 H68         8.1360    1.1070   -1.6000 h1        1 MOL      0.105568
    151 H69         5.4780    0.4080   -2.8600 hc        1 MOL      0.070739
    152 H70         7.1020    0.6610   -3.6100 hc        1 MOL      0.070739
    153 H71         7.2270    2.9210   -3.1690 hc        1 MOL      0.068688
    154 H72         5.8100    3.0280   -2.1770 hc        1 MOL      0.068688
    155 H73         4.4900    2.0910   -4.1090 hc        1 MOL      0.043533
    156 H74         5.9320    2.2430   -5.1000 hc        1 MOL      0.043533
    157 H75         5.8340    4.7880   -4.7000 hx        1 MOL      0.074318
    158 H76         4.7440    4.4780   -3.4950 hx        1 MOL      0.074318
    159 H77         3.7240    5.2050   -5.7660 hn        1 MOL      0.356560
    160 H78         4.1790    3.8280   -6.4550 hn        1 MOL      0.356560
    161 H79         3.0810    3.8000   -5.2580 hn        1 MOL      0.356560
    162 N14         5.1050    1.0690   -0.0780 n         1 MOL      0.062640
    163 C49         4.1920    1.6870    0.8970 c3        1 MOL     -0.349323
    164 C50         4.7160    1.5340    2.3070 c         1 MOL      0.503365
    165 O22         4.6050    2.5260    3.0450 o         1 MOL     -0.592580
    166 C51         2.7430    1.1220    0.7280 c3        1 MOL      0.033414
    167 C52         2.0000    1.6690   -0.4890 c3        1 MOL     -0.270912
    168 C53         0.7660    0.8320   -0.7090 c         1 MOL      0.684091
    169 O23         0.7990   -0.4010   -0.9470 o         1 MOL     -0.699052
    170 O24        -0.3320    1.4570   -0.8670 o         1 MOL     -0.699052
    171 H80         4.8360    0.1970   -0.5220 hn        1 MOL      0.029650
    172 H81         4.0660    2.7530    0.7540 h1        1 MOL      0.143287
    173 H82         2.1460    1.3090    1.6130 hc        1 MOL      0.080002
    174 H83         2.8050    0.0430    0.5740 hc        1 MOL      0.080002
    175 H84         2.5680    1.5850   -1.4220 hc        1 MOL      0.075175
    176 H85         1.8550    2.7340   -0.3220 hc        1 MOL      0.075175
    177 N15         5.3280    0.4030    2.6570 n         1 MOL     -0.014532
    178 C54         6.1080    0.3730    3.8940 c3        1 MOL     -0.257715
    179 H86         5.5960    0.9550    4.6600 h1        1 MOL      0.095002
    180 H87         6.2140   -0.6580    4.2320 h1        1 MOL      0.095002
    181 H88         7.0940    0.8000    3.7120 h1        1 MOL      0.095002
    182 H89         5.4090   -0.3540    2.0000 hn        1 MOL      0.141454
    183 Ca1        -1.9010   -0.5710   -1.4260 Ca        1 MOL      1.803570
    184 O25        -1.1340   -2.7540   -2.6010 oh        1 MOL     -0.822736
    185 H90        -1.5270   -3.6130   -2.4490 ho        1 MOL      0.378450
    186 H91        -0.7680   -2.8070   -3.4740 ho        1 MOL      0.378450
    187 O26        -0.7640    0.2950   -3.7650 oh        1 MOL     -0.822736
    188 H92        -0.0380    0.4250   -4.3710 ho        1 MOL      0.378450
    189 H93        -1.4060    0.9610   -4.0080 ho        1 MOL      0.378450
@<TRIPOS>BOND
     1    1    2 1   
     2    1    4 1   
     3    1    5 1   
     4    1    6 1   
     5    2    3 2   
     6    2    7 1   
     7    7    8 1   
     8    7   15 1   
     9    8    9 1   
    10    8   11 1   
    11    8   16 1   
    12    9   10 2   
    13    9   19 1   
    14   11   12 1   
    15   11   17 1   
    16   11   18 1   
    17   12   13 1   
    18   12   14 1   
    19   19   20 1   
    20   19   28 1   
    21   20   21 1   
    22   20   23 1   
    23   20   29 1   
    24   21   22 2   
    25   21   41 1   
    26   23   24 1   
    27   23   30 1   
    28   23   31 1   
    29   24   25 1   
    30   24   32 1   
    31   24   33 1   
    32   25   26 1   
    33   25   34 1   
    34   25   35 1   
    35   26   27 1   
    36   26   36 1   
    37   26   37 1   
    38   27   38 1   
    39   27   39 1   
    40   27   40 1   
    41   41   42 1   
    42   41   49 1   
    43   42   43 1   
    44   42   45 1   
    45   42   50 1   
    46   43   44 2   
    47   43   53 1   
    48   45   46 1   
    49   45   51 1   
    50   45   52 1   
    51   46   47 1   
    52   46   48 1   
    53   53   54 1   
    54   53   57 1   
    55   54   55 1   
    56   54   58 1   
    57   54   59 1   
    58   55   56 2   
    59   55   60 1   
    60   60   61 1   
    61   60   68 1   
    62   61   62 1   
    63   61   64 1   
    64   61   69 1   
    65   62   63 2   
    66   62   72 1   
    67   64   65 1   
    68   64   70 1   
    69   64   71 1   
    70   65   66 1   
    71   65   67 1   
    72   72   73 1   
    73   72   76 1   
    74   73   74 1   
    75   73   77 1   
    76   73   78 1   
    77   74   75 2   
    78   74   79 1   
    79   79   80 1   
    80   79   86 1   
    81   80   81 1   
    82   80   83 1   
    83   80   87 1   
    84   81   82 2   
    85   81   93 1   
    86   83   84 1   
    87   83   85 1   
    88   83   88 1   
    89   84   90 1   
    90   84   91 1   
    91   84   92 1   
    92   85   89 1   
    93   93   94 1   
    94   93  101 1   
    95   94   95 1   
    96   94   97 1   
    97   94  102 1   
    98   95   96 2   
    99   95  112 1   
   100   97   98 1   
   101   97   99 1   
   102   97  103 1   
   103   98  100 1   
   104   98  104 1   
   105   98  105 1   
   106   99  106 1   
   107   99  107 1   
   108   99  108 1   
   109  100  109 1   
   110  100  110 1   
   111  100  111 1   
   112  112  113 1   
   113  112  119 1   
   114  113  114 1   
   115  113  116 1   
   116  113  120 1   
   117  114  115 2   
   118  114  126 1   
   119  116  117 1   
   120  116  118 1   
   121  116  121 1   
   122  117  123 1   
   123  117  124 1   
   124  117  125 1   
   125  118  122 1   
   126  126  127 1   
   127  126  133 1   
   128  127  128 1   
   129  127  130 1   
   130  127  134 1   
   131  128  129 2   
   132  128  140 1   
   133  130  131 1   
   134  130  132 1   
   135  130  135 1   
   136  131  137 1   
   137  131  138 1   
   138  131  139 1   
   139  132  136 1   
   140  140  141 1   
   141  140  149 1   
   142  141  142 1   
   143  141  144 1   
   144  141  150 1   
   145  142  143 2   
   146  142  162 1   
   147  144  145 1   
   148  144  151 1   
   149  144  152 1   
   150  145  146 1   
   151  145  153 1   
   152  145  154 1   
   153  146  147 1   
   154  146  155 1   
   155  146  156 1   
   156  147  148 1   
   157  147  157 1   
   158  147  158 1   
   159  148  159 1   
   160  148  160 1   
   161  148  161 1   
   162  162  163 1   
   163  162  171 1   
   164  163  164 1   
   165  163  166 1   
   166  163  172 1   
   167  164  165 2   
   168  164  177 1   
   169  166  167 1   
   170  166  173 1   
   171  166  174 1   
   172  167  168 1   
   173  167  175 1   
   174  167  176 1   
   175  168  169 1   
   176  168  170 1   
   177  177  178 1   
   178  177  182 1   
   179  178  179 1   
   180  178  180 1   
   181  178  181 1   
   182  184  185 1   
   183  184  186 1   
   184  187  188 1   
   185  187  189 1   
@<TRIPOS>SUBSTRUCTURE
     1 MOL         1 TEMP              0 ****  ****    0 ROOT
