@<TRIPOS>MOLECULE
MOL
  175   173     1     0     0
SMALL
resp


@<TRIPOS>ATOM
      1 C1         -0.5220    3.5000    5.6560 c3        1 MOL     -0.295546
      2 C2         -0.7670    3.2400    4.1490 c         1 MOL      0.693184
      3 O1         -0.0870    3.8090    3.2850 o         1 MOL     -0.584986
      4 H1          0.1160    2.7150    6.0610 hc        1 MOL      0.069613
      5 H2         -0.0330    4.4660    5.7830 hc        1 MOL      0.069613
      6 H3         -1.4760    3.5020    6.1840 hc        1 MOL      0.069613
      7 N1         -1.7740    2.4660    3.8130 n         1 MOL     -0.477077
      8 C3         -2.1800    2.2480    2.4460 c3        1 MOL     -0.003227
      9 C4         -2.9600    3.4050    1.8050 c         1 MOL      0.522624
     10 O2         -4.1540    3.7060    2.1480 o         1 MOL     -0.609876
     11 C5         -3.0200    0.9330    2.3290 c3        1 MOL     -0.217647
     12 C6         -3.4920    0.7100    0.9040 c         1 MOL      0.267802
     13 O3         -2.8840    1.3060   -0.0110 o         1 MOL     -0.513584
     14 O4         -4.4430   -0.0720    0.6320 o         1 MOL     -0.513584
     15 H4         -2.2590    2.0750    4.6070 hn        1 MOL      0.283989
     16 H5         -1.3180    2.1770    1.7890 h1        1 MOL      0.132123
     17 H6         -3.9280    0.9630    2.9260 hc        1 MOL      0.092023
     18 H7         -2.3800    0.1130    2.6760 hc        1 MOL      0.092023
     19 N2         -2.4000    4.1120    0.8460 n         1 MOL     -0.392279
     20 C7         -2.9980    5.2590    0.1490 c3        1 MOL      0.348128
     21 C8         -3.9950    4.8670   -0.9090 c         1 MOL      0.235317
     22 O5         -4.6450    5.7040   -1.5240 o         1 MOL     -0.542079
     23 C9         -1.8060    6.1380   -0.3710 c3        1 MOL     -0.466882
     24 H8         -1.3970    4.0170    0.7530 hn        1 MOL      0.305272
     25 H9         -3.5790    5.8790    0.8320 h1        1 MOL      0.004418
     26 H10        -1.2860    5.4540   -1.0430 hc        1 MOL      0.130486
     27 H11        -2.2270    6.9180   -1.0090 hc        1 MOL      0.130486
     28 H12        -1.2560    6.6240    0.4270 hc        1 MOL      0.130486
     29 N3         -4.0850    3.5770   -1.2080 n         1 MOL      0.161968
     30 C10        -5.0930    3.1080   -2.1200 c3        1 MOL     -0.130173
     31 C11        -6.3650    2.5450   -1.4170 c         1 MOL      0.450031
     32 O6         -7.3750    2.3860   -2.0720 o         1 MOL     -0.550836
     33 C12        -4.4550    2.0030   -2.9370 c3        1 MOL      0.086071
     34 C13        -3.0520    2.3030   -3.5700 c         1 MOL      0.608102
     35 O7         -2.0520    1.5600   -3.4090 o         1 MOL     -0.690760
     36 O8         -2.9260    3.3090   -4.3620 o         1 MOL     -0.690760
     37 H13        -3.5100    2.9070   -0.7160 hn        1 MOL     -0.038798
     38 H14        -5.3820    3.9070   -2.8100 h1        1 MOL      0.105051
     39 H15        -5.0760    1.7730   -3.8090 hc        1 MOL     -0.062318
     40 H16        -4.3640    1.1320   -2.2900 hc        1 MOL     -0.062318
     41 N4         -6.3320    2.1100   -0.1980 n         1 MOL     -0.242846
     42 C14        -7.4100    1.6390    0.6200 c3        1 MOL     -0.243730
     43 C15        -7.9490    0.1800    0.4050 c         1 MOL      0.478560
     44 O9         -8.9320   -0.2120    1.0020 o         1 MOL     -0.591092
     45 H17        -5.4060    2.0700    0.2120 hn        1 MOL      0.223974
     46 H18        -8.2220    2.3650    0.6080 h1        1 MOL      0.135911
     47 H19        -7.1060    1.6210    1.6650 h1        1 MOL      0.135911
     48 N5         -7.2960   -0.6440   -0.3860 n         1 MOL     -0.123992
     49 C16        -7.6820   -2.0890   -0.5210 c3        1 MOL     -0.163574
     50 C17        -7.2440   -2.9190    0.6810 c         1 MOL      0.497523
     51 O10        -7.4930   -4.1500    0.7060 o         1 MOL     -0.515852
     52 C18        -7.0640   -2.4960   -1.8750 c3        1 MOL     -0.150658
     53 C19        -7.5330   -1.6720   -2.9910 c         1 MOL      0.662188
     54 N6         -6.7040   -1.0200   -3.6660 n         1 MOL     -0.801752
     55 O11        -8.7170   -1.5510   -3.1960 o         1 MOL     -0.597028
     56 H20        -6.3510   -0.3910   -0.6440 hn        1 MOL      0.298470
     57 H21        -8.7590   -2.1930   -0.5480 h1        1 MOL      0.171430
     58 H22        -7.3700   -3.5160   -2.0800 hc        1 MOL      0.018067
     59 H23        -5.9780   -2.4480   -1.8940 hc        1 MOL      0.018067
     60 H24        -5.7230   -1.2590   -3.5670 hn        1 MOL      0.391325
     61 H25        -7.0340   -0.4320   -4.4200 hn        1 MOL      0.391325
     62 N7         -6.6720   -2.2720    1.7280 n         1 MOL     -0.311195
     63 C20        -6.0150   -2.9010    2.8320 c3        1 MOL      0.041353
     64 C21        -4.7090   -3.6960    2.5480 c         1 MOL      0.431294
     65 O12        -4.6160   -4.8260    3.0600 o         1 MOL     -0.545470
     66 H26        -6.6330   -1.2650    1.7140 hn        1 MOL      0.242526
     67 H27        -6.6710   -3.6120    3.3310 h1        1 MOL      0.042044
     68 H28        -5.7310   -2.1760    3.6000 h1        1 MOL      0.042044
     69 N8         -3.8740   -3.1910    1.6960 n         1 MOL     -0.164778
     70 C22        -2.7110   -3.9380    1.1910 c3        1 MOL     -0.074367
     71 C23        -1.5230   -2.9920    0.8260 c         1 MOL      0.399374
     72 O13        -1.7780   -1.8760    0.4120 o         1 MOL     -0.244068
     73 C24        -3.0520   -4.7800   -0.0740 c3        1 MOL      0.208333
     74 C25        -4.1020   -5.7840    0.1460 c3        1 MOL     -0.603291
     75 O14        -3.4370   -3.9980   -1.2210 oh        1 MOL     -0.494367
     76 H29        -3.9460   -2.2880    1.2630 hn        1 MOL      0.100812
     77 H30        -2.3580   -4.6080    1.9640 h1        1 MOL      0.101210
     78 H31        -2.1420   -5.2750   -0.4190 h1        1 MOL      0.043551
     79 H32        -3.6450   -4.5390   -1.9940 ho        1 MOL      0.386990
     80 H33        -5.1240   -5.4030    0.1130 hc        1 MOL      0.175252
     81 H34        -4.0150   -6.3490   -0.7750 hc        1 MOL      0.175252
     82 H35        -3.9100   -6.3620    1.0520 hc        1 MOL      0.175252
     83 N9         -0.2640   -3.3900    1.0800 n         1 MOL     -0.518268
     84 C26         0.8460   -2.4590    1.1330 c3        1 MOL      0.186558
     85 C27         1.8790   -2.8900    0.1550 c         1 MOL      0.474696
     86 O15         2.2200   -4.0930   -0.0230 o         1 MOL     -0.595438
     87 C28         1.4580   -2.4130    2.5690 c3        1 MOL      0.006423
     88 C29         0.6830   -1.3600    3.3740 c3        1 MOL      0.140108
     89 C30         3.0350   -2.2220    2.6530 c3        1 MOL     -0.146685
     90 C31         1.0170   -1.4380    4.8690 c3        1 MOL     -0.130798
     91 H36        -0.1400   -4.2440    1.6000 hn        1 MOL      0.293193
     92 H37         0.5020   -1.4530    0.8860 h1        1 MOL     -0.130344
     93 H38         1.2310   -3.3640    3.0510 hc        1 MOL      0.021591
     94 H39        -0.3880   -1.5440    3.3010 hc        1 MOL     -0.006534
     95 H40         0.9830   -0.3420    3.1120 hc        1 MOL     -0.006534
     96 H41         3.4720   -3.1020    2.1810 hc        1 MOL      0.023323
     97 H42         3.2750   -1.2930    2.1440 hc        1 MOL      0.023323
     98 H43         3.2660   -2.3140    3.7080 hc        1 MOL      0.023323
     99 H44         0.3060   -0.7670    5.3410 hc        1 MOL      0.017568
    100 H45         0.8720   -2.4730    5.1820 hc        1 MOL      0.017568
    101 H46         1.9980   -1.0650    5.1490 hc        1 MOL      0.017568
    102 N10         2.4910   -1.9160   -0.5250 n         1 MOL     -0.033661
    103 C32         3.5430   -2.0390   -1.5080 c3        1 MOL     -0.151356
    104 C33         4.9470   -1.7340   -0.8550 c         1 MOL      0.392442
    105 O16         5.0120   -1.1160    0.1790 o         1 MOL     -0.292564
    106 C34         3.2460   -0.9670   -2.5810 c3        1 MOL     -0.047909
    107 C35         1.8800   -0.8900   -3.1670 c         1 MOL      0.669619
    108 O17         1.6640   -1.5530   -4.1820 o         1 MOL     -0.703445
    109 O18         0.9020   -0.3360   -2.6340 o         1 MOL     -0.703445
    110 H47         1.9950   -1.0400   -0.4390 hn        1 MOL      0.138395
    111 H48         3.6070   -3.0200   -1.9810 h1        1 MOL      0.092286
    112 H49         3.9320   -1.0530   -3.4180 hc        1 MOL      0.023988
    113 H50         3.4430   -0.0150   -2.0870 hc        1 MOL      0.023988
    114 N11         6.0550   -1.9290   -1.5870 n         1 MOL     -0.460878
    115 C36         7.4180   -1.5170   -1.1690 c3        1 MOL      0.153369
    116 C37         7.5410   -0.0810   -0.5740 c         1 MOL      0.425503
    117 O19         7.8610   -0.0190    0.6180 o         1 MOL     -0.474055
    118 C38         8.4500   -1.8940   -2.2910 c3        1 MOL     -0.262900
    119 C39         9.8300   -1.6850   -1.6870 ca        1 MOL      0.047171
    120 C40        10.2260   -2.5420   -0.7010 ca        1 MOL     -0.069130
    121 C41        10.6660   -0.6970   -2.1150 ca        1 MOL     -0.069130
    122 C42        11.4400   -2.3900   -0.0940 ca        1 MOL     -0.224711
    123 C43        11.9380   -0.5310   -1.5700 ca        1 MOL     -0.224711
    124 C44        12.2600   -1.2740   -0.4350 ca        1 MOL      0.015137
    125 H51         6.0050   -2.4780   -2.4340 hn        1 MOL      0.286782
    126 H52         7.5600   -2.1500   -0.2950 h1        1 MOL      0.074126
    127 H53         8.2860   -1.2770   -3.1690 hc        1 MOL      0.098705
    128 H54         8.3710   -2.9530   -2.5310 hc        1 MOL      0.098705
    129 H55         9.6460   -3.4100   -0.4240 ha        1 MOL      0.098730
    130 H56        10.3320   -0.0280   -2.8920 ha        1 MOL      0.098730
    131 H57        11.7260   -3.0100    0.7340 ha        1 MOL      0.134386
    132 H58        12.5490    0.3050   -1.8840 ha        1 MOL      0.134386
    133 H59        13.2090   -1.0800    0.0430 ha        1 MOL      0.073144
    134 N12         7.2790    1.0050   -1.3190 n         1 MOL     -0.143046
    135 C45         7.3880    2.3170   -0.7210 c3        1 MOL     -0.069144
    136 C46         6.6220    2.5870    0.5880 c         1 MOL      0.328042
    137 O20         7.1160    3.0920    1.5830 o         1 MOL     -0.460258
    138 C47         6.7790    3.2520   -1.7910 c3        1 MOL      0.192018
    139 C48         6.2750    2.4830   -3.0150 c3        1 MOL     -0.077162
    140 C49         6.8390    1.0570   -2.6890 c3        1 MOL      0.000728
    141 H60         8.3990    2.6510   -0.5270 h1        1 MOL      0.064433
    142 H61         5.9640    3.8960   -1.4530 hc        1 MOL     -0.027418
    143 H62         7.5590    3.9650   -2.0710 hc        1 MOL     -0.027418
    144 H63         5.1910    2.4070   -2.9430 hc        1 MOL      0.033781
    145 H64         6.6630    3.0630   -3.8580 hc        1 MOL      0.033781
    146 H65         6.0180    0.3610   -2.8590 h1        1 MOL      0.023953
    147 H66         7.6480    0.7780   -3.3700 h1        1 MOL      0.023953
    148 N13         5.3930    1.9230    0.6060 n         1 MOL     -0.140594
    149 C50         4.4500    2.0000    1.7500 c3        1 MOL     -0.193410
    150 C51         4.9700    1.1530    2.9600 c         1 MOL      0.442958
    151 O21         4.8180    1.5020    4.1570 o         1 MOL     -0.566811
    152 C52         3.0560    1.4810    1.3480 c3        1 MOL     -0.029410
    153 C53         2.2250    2.5020    0.5480 c3        1 MOL     -0.107199
    154 C54         0.8270    2.0560    0.1180 c         1 MOL      0.589232
    155 O22         0.5100    0.8610    0.2020 o         1 MOL     -0.700903
    156 O23         0.0590    2.9460   -0.3020 o         1 MOL     -0.700903
    157 H67         5.2080    1.2270   -0.0960 hn        1 MOL      0.178879
    158 H68         4.2670    3.0420    2.0140 h1        1 MOL      0.129423
    159 H69         2.4870    1.0700    2.1840 hc        1 MOL      0.091335
    160 H70         3.2840    0.6470    0.6780 hc        1 MOL      0.091335
    161 H71         2.8830    2.8550   -0.2460 hc        1 MOL      0.044953
    162 H72         2.0790    3.4080    1.1240 hc        1 MOL      0.044953
    163 N14         5.6740    0.0190    2.6960 n         1 MOL      0.017663
    164 C55         6.3710   -0.7490    3.7250 c3        1 MOL     -0.231856
    165 H73         5.6800   -1.4580    4.1800 h1        1 MOL      0.080654
    166 H74         7.2020   -1.2910    3.2750 h1        1 MOL      0.080654
    167 H75         6.7510   -0.0720    4.4900 h1        1 MOL      0.080654
    168 H76         5.6780   -0.3230    1.7440 hn        1 MOL      0.040192
    169 Ca1        -1.2710   -0.0010   -1.4660 Ca        1 MOL      1.681563
    170 O24        -3.6160   -1.2610   -1.6150 oh        1 MOL     -0.957006
    171 H77        -3.5090   -2.1890   -1.4250 ho        1 MOL      0.439099
    172 H78        -4.1230   -0.9190   -0.8820 ho        1 MOL      0.439099
    173 O25        -0.9860   -2.2600   -2.8920 oh        1 MOL     -0.957006
    174 H79        -1.4150   -2.7260   -3.6110 ho        1 MOL      0.439099
    175 H80        -0.0870   -2.1240   -3.1950 ho        1 MOL      0.439099
@<TRIPOS>BOND
     1    1    2 1   
     2    1    4 1   
     3    1    5 1   
     4    1    6 1   
     5    2    3 2   
     6    2    7 1   
     7    7    8 1   
     8    7   15 1   
     9    8    9 1   
    10    8   11 1   
    11    8   16 1   
    12    9   10 2   
    13    9   19 1   
    14   11   12 1   
    15   11   17 1   
    16   11   18 1   
    17   12   13 1   
    18   12   14 1   
    19   19   20 1   
    20   19   24 1   
    21   20   21 1   
    22   20   23 1   
    23   20   25 1   
    24   21   22 2   
    25   21   29 1   
    26   23   26 1   
    27   23   27 1   
    28   23   28 1   
    29   29   30 1   
    30   29   37 1   
    31   30   31 1   
    32   30   33 1   
    33   30   38 1   
    34   31   32 2   
    35   31   41 1   
    36   33   34 1   
    37   33   39 1   
    38   33   40 1   
    39   34   35 1   
    40   34   36 1   
    41   41   42 1   
    42   41   45 1   
    43   42   43 1   
    44   42   46 1   
    45   42   47 1   
    46   43   44 2   
    47   43   48 1   
    48   48   49 1   
    49   48   56 1   
    50   49   50 1   
    51   49   52 1   
    52   49   57 1   
    53   50   51 2   
    54   50   62 1   
    55   52   53 1   
    56   52   58 1   
    57   52   59 1   
    58   53   54 1   
    59   53   55 2   
    60   54   60 1   
    61   54   61 1   
    62   62   63 1   
    63   62   66 1   
    64   63   64 1   
    65   63   67 1   
    66   63   68 1   
    67   64   65 2   
    68   64   69 1   
    69   69   70 1   
    70   69   76 1   
    71   70   71 1   
    72   70   73 1   
    73   70   77 1   
    74   71   72 2   
    75   71   83 1   
    76   73   74 1   
    77   73   75 1   
    78   73   78 1   
    79   74   80 1   
    80   74   81 1   
    81   74   82 1   
    82   75   79 1   
    83   83   84 1   
    84   83   91 1   
    85   84   85 1   
    86   84   87 1   
    87   84   92 1   
    88   85   86 2   
    89   85  102 1   
    90   87   88 1   
    91   87   89 1   
    92   87   93 1   
    93   88   90 1   
    94   88   94 1   
    95   88   95 1   
    96   89   96 1   
    97   89   97 1   
    98   89   98 1   
    99   90   99 1   
   100   90  100 1   
   101   90  101 1   
   102  102  103 1   
   103  102  110 1   
   104  103  104 1   
   105  103  106 1   
   106  103  111 1   
   107  104  105 2   
   108  104  114 1   
   109  106  107 1   
   110  106  112 1   
   111  106  113 1   
   112  107  108 1   
   113  107  109 1   
   114  114  115 1   
   115  114  125 1   
   116  115  116 1   
   117  115  118 1   
   118  115  126 1   
   119  116  117 2   
   120  116  134 1   
   121  118  119 1   
   122  118  127 1   
   123  118  128 1   
   124  119  120 ar  
   125  119  121 ar  
   126  120  122 ar  
   127  120  129 1   
   128  121  123 ar  
   129  121  130 1   
   130  122  124 ar  
   131  122  131 1   
   132  123  124 ar  
   133  123  132 1   
   134  124  133 1   
   135  134  135 1   
   136  134  140 1   
   137  135  136 1   
   138  135  138 1   
   139  135  141 1   
   140  136  137 2   
   141  136  148 1   
   142  138  139 1   
   143  138  142 1   
   144  138  143 1   
   145  139  140 1   
   146  139  144 1   
   147  139  145 1   
   148  140  146 1   
   149  140  147 1   
   150  148  149 1   
   151  148  157 1   
   152  149  150 1   
   153  149  152 1   
   154  149  158 1   
   155  150  151 2   
   156  150  163 1   
   157  152  153 1   
   158  152  159 1   
   159  152  160 1   
   160  153  154 1   
   161  153  161 1   
   162  153  162 1   
   163  154  155 1   
   164  154  156 1   
   165  163  164 1   
   166  163  168 1   
   167  164  165 1   
   168  164  166 1   
   169  164  167 1   
   170  170  171 1   
   171  170  172 1   
   172  173  174 1   
   173  173  175 1   
@<TRIPOS>SUBSTRUCTURE
     1 MOL         1 TEMP              0 ****  ****    0 ROOT
