@<TRIPOS>MOLECULE
MOL
  189   185     1     0     0
SMALL
resp


@<TRIPOS>ATOM
      1 C1          1.2990   -2.8790    6.2460 c3        1 MOL     -0.395007
      2 C2          1.2580   -2.8320    4.7070 c         1 MOL      0.703312
      3 O1          0.8840   -1.8200    4.1310 o         1 MOL     -0.543954
      4 H1          2.1820   -2.3500    6.6020 hc        1 MOL      0.103177
      5 H2          0.4050   -2.4040    6.6490 hc        1 MOL      0.103177
      6 H3          1.3400   -3.9170    6.5780 hc        1 MOL      0.103177
      7 N1          1.8360   -3.8240    3.9980 n         1 MOL     -0.599432
      8 C3          2.3280   -3.6920    2.6510 c3        1 MOL      0.315067
      9 C4          2.2360   -4.9070    1.7290 c         1 MOL      0.606692
     10 O2          2.4110   -6.0490    2.1650 o         1 MOL     -0.617644
     11 C5          3.7830   -3.2560    2.7240 c3        1 MOL     -0.425660
     12 C6          4.3420   -2.5730    1.5120 c         1 MOL      0.804297
     13 O3          3.6130   -2.2920    0.5280 o         1 MOL     -0.690656
     14 O4          5.5750   -2.3220    1.5060 o         1 MOL     -0.690656
     15 H4          2.0990   -4.6270    4.5520 hn        1 MOL      0.303089
     16 H5          1.7580   -2.8950    2.1700 h1        1 MOL     -0.055067
     17 H6          4.3340   -4.1930    2.8260 hc        1 MOL      0.091538
     18 H7          3.8770   -2.6500    3.6260 hc        1 MOL      0.091538
     19 N2          1.8300   -4.7030    0.4820 n         1 MOL     -0.432826
     20 C7          1.7020   -5.7390   -0.5500 c3        1 MOL     -0.114651
     21 C8          2.6780   -5.4760   -1.7330 c         1 MOL      0.701346
     22 O5          2.9690   -6.4200   -2.4800 o         1 MOL     -0.597351
     23 C9          0.2130   -5.8600   -0.9100 c3        1 MOL      0.104983
     24 C10        -0.6170   -6.4720    0.2750 c3        1 MOL      0.193705
     25 C11        -0.2030   -6.7450   -2.1020 c3        1 MOL     -0.186536
     26 C12        -2.0170   -6.0930    0.0210 c3        1 MOL     -0.499557
     27 H8          1.6320   -3.7790    0.1410 hn        1 MOL      0.253363
     28 H9          1.9890   -6.7250   -0.2010 h1        1 MOL      0.079427
     29 H10        -0.2030   -4.8730   -1.1270 hc        1 MOL      0.052937
     30 H11        -0.3600   -6.0030    1.2180 hc        1 MOL     -0.027352
     31 H12        -0.4800   -7.5580    0.2860 hc        1 MOL     -0.027352
     32 H13        -1.2590   -6.5660   -2.2920 hc        1 MOL      0.037865
     33 H14         0.3980   -6.3530   -2.9180 hc        1 MOL      0.037865
     34 H15         0.0250   -7.8100   -2.1680 hc        1 MOL      0.037865
     35 H16        -2.1890   -5.2260   -0.6110 hc        1 MOL      0.120481
     36 H17        -2.4540   -7.0160   -0.3850 hc        1 MOL      0.120481
     37 H18        -2.3550   -5.7860    1.0110 hc        1 MOL      0.120481
     38 N3          3.2570   -4.2540   -1.8230 n         1 MOL     -0.546011
     39 C13         4.0420   -3.7840   -3.0160 c3        1 MOL      0.054161
     40 C14         5.3750   -3.0720   -2.8570 c         1 MOL      0.335775
     41 O6          6.1790   -3.0670   -3.7930 o         1 MOL     -0.530112
     42 C15         3.1150   -2.9270   -3.9960 c3        1 MOL     -0.231763
     43 C16         2.4970   -1.7170   -3.2800 c         1 MOL      0.783397
     44 O7          2.9200   -1.2390   -2.2010 o         1 MOL     -0.720778
     45 O8          1.5680   -1.1500   -3.8290 o         1 MOL     -0.720778
     46 H19         3.2110   -3.6480   -1.0130 hn        1 MOL      0.318475
     47 H20         4.2450   -4.6830   -3.6020 h1        1 MOL      0.095229
     48 H21         2.3480   -3.5570   -4.4580 hc        1 MOL      0.070907
     49 H22         3.5700   -2.5060   -4.8890 hc        1 MOL      0.070907
     50 N4          5.6950   -2.4930   -1.6590 n         1 MOL     -0.048091
     51 C17         6.9580   -1.8350   -1.3620 c3        1 MOL     -0.271785
     52 C18         7.1990   -0.4330   -1.9610 c         1 MOL      0.517261
     53 O9          8.3370   -0.0430   -2.1820 o         1 MOL     -0.593712
     54 H23         5.0410   -2.5420   -0.8960 hn        1 MOL      0.107205
     55 H24         7.7070   -2.5750   -1.6540 h1        1 MOL      0.108462
     56 H25         6.9820   -1.6290   -0.2900 h1        1 MOL      0.108462
     57 N5          6.1140    0.2780   -2.2990 n         1 MOL     -0.163842
     58 C19         6.2270    1.5620   -2.9410 c3        1 MOL     -0.050534
     59 C20         6.6360    2.7100   -1.9140 c         1 MOL      0.450236
     60 O10         7.1650    3.7650   -2.3300 o         1 MOL     -0.552784
     61 C21         4.8100    1.8930   -3.5810 c3        1 MOL     -0.232178
     62 C22         3.7640    2.0500   -2.5050 c         1 MOL      0.764580
     63 O11         3.8840    1.4020   -1.4140 o         1 MOL     -0.712478
     64 O12         2.8290    2.8530   -2.7510 o         1 MOL     -0.712478
     65 H26         5.1710   -0.0080   -2.0630 hn        1 MOL      0.180804
     66 H27         6.9180    1.5170   -3.7820 h1        1 MOL      0.091181
     67 H28         4.6060    1.1070   -4.3050 hc        1 MOL      0.069628
     68 H29         4.9170    2.8420   -4.0970 hc        1 MOL      0.069628
     69 N6          6.4630    2.3810   -0.6120 n         1 MOL     -0.206965
     70 C23         6.9130    3.2160    0.5430 c3        1 MOL     -0.273374
     71 C24         5.8250    4.0890    1.2890 c         1 MOL      0.589273
     72 O13         6.2070    4.8420    2.1400 o         1 MOL     -0.571061
     73 H30         5.9340    1.5540   -0.3630 hn        1 MOL      0.216274
     74 H31         7.6630    3.9700    0.2840 h1        1 MOL      0.116517
     75 H32         7.3470    2.5000    1.2480 h1        1 MOL      0.116517
     76 N7          4.5780    3.8380    0.8790 n         1 MOL     -0.367502
     77 C25         3.3250    4.3560    1.4820 c3        1 MOL     -0.082274
     78 C26         2.3240    3.2210    1.7590 c         1 MOL      0.839122
     79 O14         2.1180    2.2570    1.0220 o         1 MOL     -0.713716
     80 C27         2.6540    5.4160    0.6670 c3        1 MOL      0.076931
     81 C28         3.5730    6.4860    0.2020 c3        1 MOL     -0.337092
     82 C29         2.8210    7.6670   -0.3320 c         1 MOL      0.690924
     83 N8          2.4540    7.6360   -1.6110 n         1 MOL     -0.831456
     84 O15         2.4890    8.6420    0.3300 o         1 MOL     -0.592422
     85 H33         4.5480    3.0050    0.2990 hn        1 MOL      0.254571
     86 H34         3.5990    4.7280    2.4690 h1        1 MOL      0.058387
     87 H35         1.9130    5.9820    1.2350 hc        1 MOL      0.044346
     88 H36         2.0820    4.9850   -0.1480 hc        1 MOL      0.044346
     89 H37         4.1500    6.0990   -0.6430 hc        1 MOL      0.118415
     90 H38         4.2490    6.8200    0.9880 hc        1 MOL      0.118415
     91 H39         2.4460    6.7500   -2.0750 hn        1 MOL      0.372625
     92 H40         1.9270    8.4170   -1.9840 hn        1 MOL      0.372625
     93 N9          1.5770    3.3780    2.8090 n         1 MOL     -0.712176
     94 C30         0.2940    2.6280    2.9880 c3        1 MOL      0.070461
     95 C31        -0.7840    3.3220    2.1260 c         1 MOL      0.558331
     96 O16        -0.8620    4.5530    2.1630 o         1 MOL     -0.599940
     97 C32        -0.2040    2.4730    4.4840 c3        1 MOL      0.279382
     98 C33        -1.3280    1.4870    4.6340 c3        1 MOL     -0.296806
     99 C34         0.9120    1.8870    5.3600 c3        1 MOL     -0.296806
    100 H41         1.6370    4.2390    3.3360 hn        1 MOL      0.323692
    101 H42         0.4330    1.6140    2.6030 h1        1 MOL      0.149778
    102 H43        -0.6020    3.4170    4.8780 hc        1 MOL     -0.032347
    103 H44        -0.9330    0.5700    4.2150 hc        1 MOL      0.059093
    104 H45        -1.6740    1.4970    5.6590 hc        1 MOL      0.059093
    105 H46        -2.1000    1.8620    3.9540 hc        1 MOL      0.059093
    106 H47         1.7620    2.5380    5.5440 hc        1 MOL      0.059093
    107 H48         0.4920    1.6320    6.3290 hc        1 MOL      0.059093
    108 H49         1.3230    0.9780    4.9260 hc        1 MOL      0.059093
    109 N10        -1.6230    2.5010    1.4880 n         1 MOL     -0.486090
    110 C35        -2.7660    2.9010    0.5800 c3        1 MOL      0.474950
    111 C36        -4.0660    2.3240    1.0610 c         1 MOL      0.223813
    112 O17        -4.1270    1.3060    1.7760 o         1 MOL     -0.370958
    113 C37        -2.4210    2.5660   -0.8680 c3        1 MOL     -0.538467
    114 C38        -2.7960    1.2330   -1.4990 c         1 MOL      0.594224
    115 N11        -1.8480    0.5390   -2.0490 n         1 MOL     -0.649811
    116 O18        -3.9700    0.8380   -1.5980 o         1 MOL     -0.518127
    117 H50        -1.6110    1.5180    1.7260 hn        1 MOL      0.287296
    118 H51        -2.9060    3.9810    0.5970 h1        1 MOL     -0.010755
    119 H52        -1.3750    2.8370   -0.9670 hc        1 MOL      0.153752
    120 H53        -2.8660    3.3700   -1.4530 hc        1 MOL      0.153752
    121 H54        -0.9050    0.8520   -1.8840 hn        1 MOL      0.356566
    122 H55        -1.9920   -0.3370   -2.5440 hn        1 MOL      0.356566
    123 N12        -5.1250    3.0230    0.7540 n         1 MOL     -0.383544
    124 C39        -6.5120    2.8120    1.2620 c3        1 MOL      0.200590
    125 C40        -6.9480    1.3570    1.2470 c         1 MOL      0.302592
    126 O19        -7.5490    0.9410    2.2190 o         1 MOL     -0.528167
    127 C41        -7.5440    3.6640    0.4320 c3        1 MOL     -0.426728
    128 C42        -7.4550    3.5300   -1.1260 ca        1 MOL      0.079114
    129 C43        -8.2570    2.6230   -1.8300 ca        1 MOL     -0.191752
    130 C44        -6.3890    4.1960   -1.7570 ca        1 MOL     -0.191752
    131 C45        -8.0260    2.3380   -3.1600 ca        1 MOL     -0.291212
    132 C46        -6.1620    3.9150   -3.1480 ca        1 MOL     -0.291212
    133 C47        -6.9380    2.9450   -3.8310 ca        1 MOL      0.392768
    134 O20        -6.6470    2.6550   -5.1450 oh        1 MOL     -0.517028
    135 H56        -5.0330    3.8190    0.1420 hn        1 MOL      0.235415
    136 H57        -6.5730    3.0930    2.3100 h1        1 MOL      0.049857
    137 H58        -7.2800    4.6900    0.6520 hc        1 MOL      0.140481
    138 H59        -8.5770    3.5130    0.7480 hc        1 MOL      0.140481
    139 H60        -8.9640    2.0500   -1.2530 ha        1 MOL      0.145418
    140 H61        -5.7080    4.8660   -1.2650 ha        1 MOL      0.145418
    141 H62        -8.6620    1.6860   -3.7410 ha        1 MOL      0.165261
    142 H63        -5.3070    4.3170   -3.6680 ha        1 MOL      0.165261
    143 H64        -7.2030    1.8990   -5.3070 ho        1 MOL      0.393253
    144 N13        -6.7920    0.6650    0.0920 n         1 MOL      0.006454
    145 C48        -7.4200   -0.6730   -0.0450 c3        1 MOL     -0.139305
    146 C49        -6.5150   -1.8500    0.4530 c         1 MOL      0.338401
    147 O21        -6.9240   -2.8900    1.0030 o         1 MOL     -0.508843
    148 C50        -8.0300   -0.9740   -1.4060 c3        1 MOL      0.301320
    149 C51        -7.0000   -1.5970   -2.4560 c3        1 MOL     -0.312294
    150 C52        -7.7370   -2.2490   -3.6160 c         1 MOL      0.681731
    151 O22        -8.6160   -3.1210   -3.4020 o         1 MOL     -0.731000
    152 O23        -7.4530   -1.8840   -4.8050 o         1 MOL     -0.731000
    153 H65        -6.2500    1.0930   -0.6520 hn        1 MOL      0.252674
    154 H66        -8.3490   -0.6990    0.5290 h1        1 MOL      0.070732
    155 H67        -8.5700   -0.0870   -1.7610 hc        1 MOL     -0.056215
    156 H68        -8.8410   -1.7000   -1.3210 hc        1 MOL     -0.056215
    157 H69        -6.4430   -2.3580   -1.9140 hc        1 MOL      0.058713
    158 H70        -6.2970   -0.8090   -2.7160 hc        1 MOL      0.058713
    159 N14        -5.1820   -1.6840    0.3690 n         1 MOL     -0.036132
    160 C53        -4.1190   -2.5230    0.9130 c3        1 MOL     -0.149132
    161 C54        -4.3100   -2.6980    2.4040 c         1 MOL      0.509007
    162 O24        -4.1130   -3.8120    2.8220 o         1 MOL     -0.553975
    163 C55        -2.8180   -1.6940    0.7680 c3        1 MOL      0.118675
    164 C56        -1.5360   -2.3160    1.2880 c3        1 MOL     -0.121565
    165 C57        -0.2850   -1.5270    0.8360 c         1 MOL      0.735530
    166 O25        -0.1530   -0.3250    1.1280 o         1 MOL     -0.745707
    167 O26         0.5070   -2.0300   -0.0250 o         1 MOL     -0.745707
    168 H71        -4.9680   -0.8000   -0.0620 hn        1 MOL     -0.021658
    169 H72        -4.0460   -3.4590    0.3590 h1        1 MOL      0.132419
    170 H73        -2.7840   -0.6680    1.1510 hc        1 MOL     -0.001289
    171 H74        -2.6820   -1.4700   -0.2910 hc        1 MOL     -0.001289
    172 H75        -1.4830   -3.3320    0.9100 hc        1 MOL      0.026703
    173 H76        -1.4980   -2.4350    2.3790 hc        1 MOL      0.026703
    174 N15        -4.6350   -1.6620    3.1870 n         1 MOL     -0.180086
    175 C58        -4.7980   -1.7870    4.6780 c3        1 MOL     -0.329693
    176 H77        -3.9890   -1.2530    5.1770 h1        1 MOL      0.122559
    177 H78        -5.7540   -1.3580    4.9770 h1        1 MOL      0.122559
    178 H79        -4.7660   -2.8390    4.9610 h1        1 MOL      0.122559
    179 H80        -4.6770   -0.7430    2.7570 hn        1 MOL      0.185954
    180 Ca1         2.3010   -0.1440   -0.0110 Ca        1 MOL      1.773678
    181 O27         2.6320   -0.3790    2.7130 oh        1 MOL     -0.823959
    182 H81         2.0190   -0.8580    3.2580 ho        1 MOL      0.390663
    183 H82         3.3560   -0.1630    3.3110 ho        1 MOL      0.390663
    184 O28         4.8290    0.2760    1.0850 oh        1 MOL     -0.823959
    185 H83         5.0360    0.5020    1.9920 ho        1 MOL      0.390663
    186 H84         5.2110   -0.6030    0.9600 ho        1 MOL      0.390663
    187 O29         1.0180    1.0240   -2.0000 oh        1 MOL     -0.823959
    188 H85         1.4200    1.8710   -2.1700 ho        1 MOL      0.390663
    189 H86         1.1000    0.5600   -2.8340 ho        1 MOL      0.390663
@<TRIPOS>BOND
     1    1    2 1   
     2    1    4 1   
     3    1    5 1   
     4    1    6 1   
     5    2    3 2   
     6    2    7 1   
     7    7    8 1   
     8    7   15 1   
     9    8    9 1   
    10    8   11 1   
    11    8   16 1   
    12    9   10 2   
    13    9   19 1   
    14   11   12 1   
    15   11   17 1   
    16   11   18 1   
    17   12   13 1   
    18   12   14 1   
    19   19   20 1   
    20   19   27 1   
    21   20   21 1   
    22   20   23 1   
    23   20   28 1   
    24   21   22 2   
    25   21   38 1   
    26   23   24 1   
    27   23   25 1   
    28   23   29 1   
    29   24   26 1   
    30   24   30 1   
    31   24   31 1   
    32   25   32 1   
    33   25   33 1   
    34   25   34 1   
    35   26   35 1   
    36   26   36 1   
    37   26   37 1   
    38   38   39 1   
    39   38   46 1   
    40   39   40 1   
    41   39   42 1   
    42   39   47 1   
    43   40   41 2   
    44   40   50 1   
    45   42   43 1   
    46   42   48 1   
    47   42   49 1   
    48   43   44 1   
    49   43   45 1   
    50   50   51 1   
    51   50   54 1   
    52   51   52 1   
    53   51   55 1   
    54   51   56 1   
    55   52   53 2   
    56   52   57 1   
    57   57   58 1   
    58   57   65 1   
    59   58   59 1   
    60   58   61 1   
    61   58   66 1   
    62   59   60 2   
    63   59   69 1   
    64   61   62 1   
    65   61   67 1   
    66   61   68 1   
    67   62   63 1   
    68   62   64 1   
    69   69   70 1   
    70   69   73 1   
    71   70   71 1   
    72   70   74 1   
    73   70   75 1   
    74   71   72 2   
    75   71   76 1   
    76   76   77 1   
    77   76   85 1   
    78   77   78 1   
    79   77   80 1   
    80   77   86 1   
    81   78   79 2   
    82   78   93 1   
    83   80   81 1   
    84   80   87 1   
    85   80   88 1   
    86   81   82 1   
    87   81   89 1   
    88   81   90 1   
    89   82   83 1   
    90   82   84 2   
    91   83   91 1   
    92   83   92 1   
    93   93   94 1   
    94   93  100 1   
    95   94   95 1   
    96   94   97 1   
    97   94  101 1   
    98   95   96 2   
    99   95  109 1   
   100   97   98 1   
   101   97   99 1   
   102   97  102 1   
   103   98  103 1   
   104   98  104 1   
   105   98  105 1   
   106   99  106 1   
   107   99  107 1   
   108   99  108 1   
   109  109  110 1   
   110  109  117 1   
   111  110  111 1   
   112  110  113 1   
   113  110  118 1   
   114  111  112 2   
   115  111  123 1   
   116  113  114 1   
   117  113  119 1   
   118  113  120 1   
   119  114  115 1   
   120  114  116 2   
   121  115  121 1   
   122  115  122 1   
   123  123  124 1   
   124  123  135 1   
   125  124  125 1   
   126  124  127 1   
   127  124  136 1   
   128  125  126 2   
   129  125  144 1   
   130  127  128 1   
   131  127  137 1   
   132  127  138 1   
   133  128  129 ar  
   134  128  130 ar  
   135  129  131 ar  
   136  129  139 1   
   137  130  132 ar  
   138  130  140 1   
   139  131  133 ar  
   140  131  141 1   
   141  132  133 ar  
   142  132  142 1   
   143  133  134 1   
   144  134  143 1   
   145  144  145 1   
   146  144  153 1   
   147  145  146 1   
   148  145  148 1   
   149  145  154 1   
   150  146  147 2   
   151  146  159 1   
   152  148  149 1   
   153  148  155 1   
   154  148  156 1   
   155  149  150 1   
   156  149  157 1   
   157  149  158 1   
   158  150  151 1   
   159  150  152 1   
   160  159  160 1   
   161  159  168 1   
   162  160  161 1   
   163  160  163 1   
   164  160  169 1   
   165  161  162 2   
   166  161  174 1   
   167  163  164 1   
   168  163  170 1   
   169  163  171 1   
   170  164  165 1   
   171  164  172 1   
   172  164  173 1   
   173  165  166 1   
   174  165  167 1   
   175  174  175 1   
   176  174  179 1   
   177  175  176 1   
   178  175  177 1   
   179  175  178 1   
   180  181  182 1   
   181  181  183 1   
   182  184  185 1   
   183  184  186 1   
   184  187  188 1   
   185  187  189 1   
@<TRIPOS>SUBSTRUCTURE
     1 MOL         1 TEMP              0 ****  ****    0 ROOT
