@<TRIPOS>MOLECULE
MOL
  183   181     1     0     0
SMALL
resp


@<TRIPOS>ATOM
      1 C1         -0.0590    2.3330    5.8050 c3        1 MOL     -0.255267
      2 C2         -0.7680    2.2730    4.3980 c         1 MOL      0.703091
      3 O1         -0.2140    2.7980    3.4090 o         1 MOL     -0.585660
      4 H1         -0.3870    1.4900    6.4120 hc        1 MOL      0.060271
      5 H2          1.0220    2.2850    5.6700 hc        1 MOL      0.060271
      6 H3         -0.3230    3.2650    6.3050 hc        1 MOL      0.060271
      7 N1         -1.9850    1.7010    4.2190 n         1 MOL     -0.663568
      8 C3         -2.6460    1.5840    2.9120 c3        1 MOL      0.427577
      9 C4         -3.3020    2.8610    2.3440 c         1 MOL      0.315906
     10 O2         -4.2770    3.4090    2.8480 o         1 MOL     -0.546130
     11 C5         -3.7630    0.5860    3.0480 c3        1 MOL     -0.409378
     12 C6         -4.5990    0.2970    1.7990 c         1 MOL      0.872331
     13 O3         -5.6710   -0.3060    1.9010 o         1 MOL     -0.682520
     14 O4         -4.0830    0.5700    0.6970 o         1 MOL     -0.682520
     15 H4         -2.5260    1.4020    5.0100 hn        1 MOL      0.322623
     16 H5         -1.9070    1.2880    2.1630 h1        1 MOL     -0.002242
     17 H6         -4.3950    0.9400    3.8600 hc        1 MOL      0.072201
     18 H7         -3.4240   -0.3770    3.4360 hc        1 MOL      0.072201
     19 N2         -2.9010    3.3550    1.1190 n         1 MOL     -0.103508
     20 C7         -3.1980    4.7500    0.7170 c3        1 MOL     -0.109863
     21 C8         -4.3120    4.7520   -0.3880 c         1 MOL      0.508292
     22 O5         -5.0240    5.7700   -0.3890 o         1 MOL     -0.593257
     23 C9         -1.9120    5.5640    0.3300 c3        1 MOL      0.191952
     24 C10        -0.6780    5.3280    1.2740 c3        1 MOL      0.024037
     25 C11        -2.3230    7.0210    0.4290 c3        1 MOL     -0.271215
     26 C12         0.6930    5.9810    0.9720 c3        1 MOL     -0.155401
     27 H8         -2.0950    2.8740    0.7590 hn        1 MOL      0.112968
     28 H9         -3.6330    5.3590    1.5120 h1        1 MOL      0.117179
     29 H10        -1.6990    5.3700   -0.7160 hc        1 MOL     -0.005029
     30 H11        -0.4270    4.2740    1.3240 hc        1 MOL      0.008085
     31 H12        -1.0560    5.5820    2.2670 hc        1 MOL      0.008085
     32 H13        -3.1110    7.2510   -0.2850 hc        1 MOL      0.048247
     33 H14        -2.7660    7.3080    1.3760 hc        1 MOL      0.048247
     34 H15        -1.5540    7.6950    0.0650 hc        1 MOL      0.048247
     35 H16         0.6360    7.0580    1.0820 hc        1 MOL      0.027331
     36 H17         1.3750    5.6770    1.7720 hc        1 MOL      0.027331
     37 H18         1.1300    5.7400   -0.0090 hc        1 MOL      0.027331
     38 N3         -4.5340    3.6820   -1.1490 n         1 MOL     -0.402366
     39 C13        -5.6670    3.5500   -2.0570 c3        1 MOL      0.170414
     40 C14        -6.9120    2.7280   -1.4940 c         1 MOL      0.382180
     41 O6         -7.9880    2.8020   -2.0430 o         1 MOL     -0.519954
     42 C15        -5.1630    2.9750   -3.4290 c3        1 MOL     -0.268473
     43 C16        -4.3560    1.6490   -3.3230 c         1 MOL      0.732261
     44 O7         -3.9680    1.1930   -2.2070 o         1 MOL     -0.684863
     45 O8         -3.9570    1.1560   -4.4160 o         1 MOL     -0.684863
     46 H19        -3.9140    2.9150   -0.9840 hn        1 MOL      0.242461
     47 H20        -6.1430    4.5090   -2.2640 h1        1 MOL      0.045943
     48 H21        -4.7260    3.8120   -3.9730 hc        1 MOL      0.064425
     49 H22        -6.0320    2.7820   -4.0640 hc        1 MOL      0.064425
     50 N4         -6.6560    1.9560   -0.3860 n         1 MOL     -0.135990
     51 C17        -7.7860    1.3610    0.1890 c3        1 MOL     -0.200208
     52 C18        -8.1010   -0.0230   -0.2950 c         1 MOL      0.577422
     53 O9         -9.2640   -0.3320   -0.5170 o         1 MOL     -0.625304
     54 H23        -5.7000    1.7780   -0.1450 hn        1 MOL      0.170448
     55 H24        -8.6570    1.9980    0.0870 h1        1 MOL      0.081571
     56 H25        -7.4900    1.2490    1.2330 h1        1 MOL      0.081571
     57 N5         -7.1310   -0.8280   -0.7160 n         1 MOL     -0.092171
     58 C19        -7.3080   -2.2240   -1.1550 c3        1 MOL     -0.173794
     59 C20        -7.1570   -3.3380   -0.0540 c         1 MOL      0.363504
     60 O10        -7.5450   -4.4920   -0.2740 o         1 MOL     -0.563889
     61 C21        -6.2370   -2.4630   -2.2750 c3        1 MOL     -0.083468
     62 C22        -4.7380   -2.2560   -1.7990 c         1 MOL      0.697606
     63 O11        -3.9030   -2.1110   -2.7040 o         1 MOL     -0.712103
     64 O12        -4.4390   -2.0790   -0.6020 o         1 MOL     -0.712103
     65 H26        -6.1810   -0.6110   -0.4600 hn        1 MOL      0.027523
     66 H27        -8.2080   -2.2510   -1.7680 h1        1 MOL      0.127150
     67 H28        -6.4630   -1.8400   -3.1380 hc        1 MOL      0.040567
     68 H29        -6.3330   -3.4800   -2.6630 hc        1 MOL      0.040567
     69 N6         -6.5980   -2.9910    1.0380 n         1 MOL     -0.008105
     70 C23        -6.2660   -3.8680    2.1990 c3        1 MOL     -0.241231
     71 C24        -4.9270   -4.6300    2.0370 c         1 MOL      0.620005
     72 O13        -4.8300   -5.7660    2.5140 o         1 MOL     -0.600407
     73 H30        -6.3290   -2.0280    1.1550 hn        1 MOL      0.136728
     74 H31        -7.0090   -4.6610    2.2010 h1        1 MOL      0.089019
     75 H32        -6.2670   -3.3400    3.1550 h1        1 MOL      0.089019
     76 N7         -3.9340   -4.0690    1.3290 n         1 MOL     -0.376504
     77 C25        -2.5750   -4.5180    1.3220 c3        1 MOL      0.028372
     78 C26        -1.6200   -3.3130    1.3810 c         1 MOL      0.587375
     79 O14        -2.0330   -2.1540    1.1390 o         1 MOL     -0.668510
     80 C27        -2.3200   -5.5060    0.2020 c3        1 MOL      0.168593
     81 C28        -2.5950   -5.0840   -1.2110 c3        1 MOL     -0.178104
     82 C29        -1.5020   -4.2130   -1.8030 c         1 MOL      0.518206
     83 N8         -0.7430   -4.7560   -2.7290 n         1 MOL     -0.670303
     84 O15        -1.3690   -2.9840   -1.5540 o         1 MOL     -0.487698
     85 H33        -4.1750   -3.3210    0.6900 hn        1 MOL      0.335247
     86 H34        -2.3690   -5.1290    2.2030 h1        1 MOL      0.035832
     87 H35        -2.8890   -6.4060    0.4230 hc        1 MOL     -0.045145
     88 H36        -1.2740   -5.7970    0.3250 hc        1 MOL     -0.045145
     89 H37        -3.4730   -4.4580   -1.3180 hc        1 MOL      0.052607
     90 H38        -2.5630   -5.9730   -1.8480 hc        1 MOL      0.052607
     91 H39        -0.9880   -5.7230   -2.9050 hn        1 MOL      0.329360
     92 H40         0.0600   -4.2870   -3.1350 hn        1 MOL      0.329360
     93 N9         -0.3160   -3.5290    1.6450 n         1 MOL     -0.575839
     94 C30         0.7380   -2.5130    1.7980 c3        1 MOL      0.019756
     95 C31         1.9520   -3.1260    0.9990 c         1 MOL      0.451798
     96 O16         2.5710   -4.1020    1.4050 o         1 MOL     -0.571793
     97 C32         1.1450   -2.3340    3.2720 c3        1 MOL      0.193359
     98 C33         2.0050   -1.0690    3.3250 c3        1 MOL     -0.252341
     99 C34         0.0010   -2.0620    4.1470 c3        1 MOL     -0.252341
    100 H41        -0.0730   -4.5090    1.6790 hn        1 MOL      0.329321
    101 H42         0.4950   -1.5780    1.2940 h1        1 MOL      0.149482
    102 H43         1.6580   -3.2250    3.6300 hc        1 MOL      0.005645
    103 H44         2.7790   -1.1450    2.5700 hc        1 MOL      0.049961
    104 H45         1.4260   -0.1580    3.1780 hc        1 MOL      0.049961
    105 H46         2.5740   -0.9940    4.2500 hc        1 MOL      0.049961
    106 H47        -0.7850   -1.3770    3.8360 hc        1 MOL      0.049961
    107 H48        -0.3870   -3.0130    4.5150 hc        1 MOL      0.049961
    108 H49         0.3020   -1.6790    5.1260 hc        1 MOL      0.049961
    109 N10         2.3050   -2.5190   -0.1040 n         1 MOL     -0.110562
    110 C35         3.5640   -2.6130   -0.8590 c3        1 MOL      0.032279
    111 C36         4.8030   -2.0580   -0.1200 c         1 MOL      0.349972
    112 O17         4.6270   -1.2350    0.7990 o         1 MOL     -0.346474
    113 C37         3.4080   -1.9020   -2.1880 c3        1 MOL     -0.419993
    114 C38         2.2140   -2.2960   -3.0640 c         1 MOL      0.699111
    115 N11         1.0750   -1.6880   -2.9180 n         1 MOL     -0.745767
    116 O18         2.1420   -3.3340   -3.7220 o         1 MOL     -0.615981
    117 H50         1.6920   -1.7540   -0.3660 hn        1 MOL      0.037784
    118 H51         3.7470   -3.6660   -1.1050 h1        1 MOL      0.070450
    119 H52         4.3180   -1.9160   -2.7920 hc        1 MOL      0.134242
    120 H53         3.2710   -0.8420   -1.9780 hc        1 MOL      0.134242
    121 H54         1.0230   -1.0500   -2.1360 hn        1 MOL      0.391291
    122 H55         0.2280   -2.1280   -3.2400 hn        1 MOL      0.391291
    123 N12         6.0210   -2.1760   -0.6230 n         1 MOL     -0.349914
    124 C39         7.2020   -1.5280   -0.0870 c3        1 MOL      0.074456
    125 C40         7.2690    0.0460   -0.1740 c         1 MOL      0.446553
    126 O19         7.6190    0.6990    0.8280 o         1 MOL     -0.504636
    127 C41         8.3750   -2.1560   -0.8600 c3        1 MOL     -0.397983
    128 C42         9.7600   -1.6420   -0.3870 ca        1 MOL      0.446705
    129 C43        10.2820   -2.2090    0.7250 ca        1 MOL     -0.420919
    130 C44        10.5260   -0.8730   -1.3150 ca        1 MOL     -0.420919
    131 C45        11.5630   -1.7820    1.1720 ca        1 MOL     -0.065763
    132 C46        11.8130   -0.4450   -0.8550 ca        1 MOL     -0.065763
    133 C47        12.3930   -0.9400    0.3500 ca        1 MOL      0.122933
    134 O20        13.6000   -0.5260    0.8230 oh        1 MOL     -0.457866
    135 H56         6.1820   -2.7600   -1.4300 hn        1 MOL      0.277711
    136 H57         7.2460   -1.8220    0.9630 h1        1 MOL      0.100169
    137 H58         8.2740   -2.0180   -1.9380 hc        1 MOL      0.099029
    138 H59         8.3040   -3.2260   -0.6530 hc        1 MOL      0.099029
    139 H60         9.7220   -2.9270    1.3010 ha        1 MOL      0.196566
    140 H61        10.0940   -0.4360   -2.2010 ha        1 MOL      0.196566
    141 H62        11.9390   -1.9790    2.1660 ha        1 MOL      0.113870
    142 H63        12.3000    0.2570   -1.5160 ha        1 MOL      0.113870
    143 H64        14.1450   -0.1000    0.1530 ho        1 MOL      0.363379
    144 N13         6.7780    0.6790   -1.2570 n         1 MOL     -0.390742
    145 C48         6.5070    2.1250   -1.3640 c3        1 MOL      0.085665
    146 C49         5.5970    2.6170   -0.2520 c         1 MOL      0.399812
    147 O21         5.8710    3.6400    0.3730 o         1 MOL     -0.541551
    148 C50         6.1160    2.5800   -2.7210 c3        1 MOL     -0.046575
    149 C51         4.8120    2.0570   -3.2560 c3        1 MOL     -0.094572
    150 C52         4.3130    2.6490   -4.6030 c         1 MOL      0.732845
    151 O22         3.5390    3.6340   -4.6240 o         1 MOL     -0.728539
    152 O23         4.6440    2.2140   -5.7150 o         1 MOL     -0.728539
    153 H65         6.5030    0.0680   -2.0260 hn        1 MOL      0.286532
    154 H66         7.4010    2.7060   -1.1190 h1        1 MOL      0.045962
    155 H67         6.8850    2.2410   -3.4160 hc        1 MOL      0.021972
    156 H68         6.0570    3.6650   -2.7180 hc        1 MOL      0.021972
    157 H69         3.9860    2.1810   -2.5610 hc        1 MOL     -0.066223
    158 H70         4.9650    0.9780   -3.3340 hc        1 MOL     -0.066223
    159 N14         4.5120    1.9560    0.0490 n         1 MOL     -0.024247
    160 C53         3.4680    2.2950    1.0520 c3        1 MOL     -0.088849
    161 C54         3.9780    2.1410    2.4860 c         1 MOL      0.352142
    162 O24         3.7480    3.0160    3.3230 o         1 MOL     -0.529144
    163 C55         2.2230    1.4790    0.8420 c3        1 MOL      0.226337
    164 C56         1.4450    1.8230   -0.3950 c3        1 MOL     -0.069674
    165 C57         0.0870    1.0110   -0.4350 c         1 MOL      0.563907
    166 O25        -1.0690    1.6260   -0.4130 o         1 MOL     -0.678619
    167 O26         0.1650   -0.2420   -0.7050 o         1 MOL     -0.678619
    168 H71         4.3070    1.2410   -0.6250 hn        1 MOL      0.082790
    169 H72         3.2660    3.3580    0.9010 h1        1 MOL      0.097779
    170 H73         1.5620    1.5460    1.7000 hc        1 MOL      0.021420
    171 H74         2.4680    0.4240    0.7700 hc        1 MOL      0.021420
    172 H75         2.1000    1.5620   -1.2290 hc        1 MOL      0.037844
    173 H76         1.2530    2.9010   -0.4400 hc        1 MOL      0.037844
    174 N15         4.8100    1.1390    2.6960 n         1 MOL      0.016476
    175 C58         5.4560    0.8160    3.9800 c3        1 MOL     -0.202532
    176 H77         4.8720    0.0560    4.4990 h1        1 MOL      0.073747
    177 H78         6.4620    0.4370    3.7960 h1        1 MOL      0.073747
    178 H79         5.5130    1.7140    4.5960 h1        1 MOL      0.073747
    179 H80         4.8880    0.4590    1.9550 hn        1 MOL      0.030984
    180 Ca1        -2.3720   -0.4540   -1.0400 Ca        1 MOL      1.730191
    181 O27        -1.4720    0.0920   -3.5720 oh        1 MOL     -0.916506
    182 H81        -2.2680    0.4860   -3.9080 ho        1 MOL      0.425033
    183 H82        -0.7920    0.3470   -4.1970 ho        1 MOL      0.425033
@<TRIPOS>BOND
     1    1    2 1   
     2    1    4 1   
     3    1    5 1   
     4    1    6 1   
     5    2    3 2   
     6    2    7 1   
     7    7    8 1   
     8    7   15 1   
     9    8    9 1   
    10    8   11 1   
    11    8   16 1   
    12    9   10 2   
    13    9   19 1   
    14   11   12 1   
    15   11   17 1   
    16   11   18 1   
    17   12   13 1   
    18   12   14 1   
    19   19   20 1   
    20   19   27 1   
    21   20   21 1   
    22   20   23 1   
    23   20   28 1   
    24   21   22 2   
    25   21   38 1   
    26   23   24 1   
    27   23   25 1   
    28   23   29 1   
    29   24   26 1   
    30   24   30 1   
    31   24   31 1   
    32   25   32 1   
    33   25   33 1   
    34   25   34 1   
    35   26   35 1   
    36   26   36 1   
    37   26   37 1   
    38   38   39 1   
    39   38   46 1   
    40   39   40 1   
    41   39   42 1   
    42   39   47 1   
    43   40   41 2   
    44   40   50 1   
    45   42   43 1   
    46   42   48 1   
    47   42   49 1   
    48   43   44 1   
    49   43   45 1   
    50   50   51 1   
    51   50   54 1   
    52   51   52 1   
    53   51   55 1   
    54   51   56 1   
    55   52   53 2   
    56   52   57 1   
    57   57   58 1   
    58   57   65 1   
    59   58   59 1   
    60   58   61 1   
    61   58   66 1   
    62   59   60 2   
    63   59   69 1   
    64   61   62 1   
    65   61   67 1   
    66   61   68 1   
    67   62   63 1   
    68   62   64 1   
    69   69   70 1   
    70   69   73 1   
    71   70   71 1   
    72   70   74 1   
    73   70   75 1   
    74   71   72 2   
    75   71   76 1   
    76   76   77 1   
    77   76   85 1   
    78   77   78 1   
    79   77   80 1   
    80   77   86 1   
    81   78   79 2   
    82   78   93 1   
    83   80   81 1   
    84   80   87 1   
    85   80   88 1   
    86   81   82 1   
    87   81   89 1   
    88   81   90 1   
    89   82   83 1   
    90   82   84 2   
    91   83   91 1   
    92   83   92 1   
    93   93   94 1   
    94   93  100 1   
    95   94   95 1   
    96   94   97 1   
    97   94  101 1   
    98   95   96 2   
    99   95  109 1   
   100   97   98 1   
   101   97   99 1   
   102   97  102 1   
   103   98  103 1   
   104   98  104 1   
   105   98  105 1   
   106   99  106 1   
   107   99  107 1   
   108   99  108 1   
   109  109  110 1   
   110  109  117 1   
   111  110  111 1   
   112  110  113 1   
   113  110  118 1   
   114  111  112 2   
   115  111  123 1   
   116  113  114 1   
   117  113  119 1   
   118  113  120 1   
   119  114  115 1   
   120  114  116 2   
   121  115  121 1   
   122  115  122 1   
   123  123  124 1   
   124  123  135 1   
   125  124  125 1   
   126  124  127 1   
   127  124  136 1   
   128  125  126 2   
   129  125  144 1   
   130  127  128 1   
   131  127  137 1   
   132  127  138 1   
   133  128  129 ar  
   134  128  130 ar  
   135  129  131 ar  
   136  129  139 1   
   137  130  132 ar  
   138  130  140 1   
   139  131  133 ar  
   140  131  141 1   
   141  132  133 ar  
   142  132  142 1   
   143  133  134 1   
   144  134  143 1   
   145  144  145 1   
   146  144  153 1   
   147  145  146 1   
   148  145  148 1   
   149  145  154 1   
   150  146  147 2   
   151  146  159 1   
   152  148  149 1   
   153  148  155 1   
   154  148  156 1   
   155  149  150 1   
   156  149  157 1   
   157  149  158 1   
   158  150  151 1   
   159  150  152 1   
   160  159  160 1   
   161  159  168 1   
   162  160  161 1   
   163  160  163 1   
   164  160  169 1   
   165  161  162 2   
   166  161  174 1   
   167  163  164 1   
   168  163  170 1   
   169  163  171 1   
   170  164  165 1   
   171  164  172 1   
   172  164  173 1   
   173  165  166 1   
   174  165  167 1   
   175  174  175 1   
   176  174  179 1   
   177  175  176 1   
   178  175  177 1   
   179  175  178 1   
   180  181  182 1   
   181  181  183 1   
@<TRIPOS>SUBSTRUCTURE
     1 MOL         1 TEMP              0 ****  ****    0 ROOT
