@<TRIPOS>MOLECULE
MOL
  179   176     1     0     0
SMALL
resp


@<TRIPOS>ATOM
      1 C1          2.2600    1.8000    5.5960 c3        1 MOL     -0.250342
      2 C2          1.6520    2.0710    4.2570 c         1 MOL      0.790312
      3 O1          2.3820    2.1630    3.3200 o         1 MOL     -0.653238
      4 H1          2.4580    0.7320    5.6950 hc        1 MOL      0.062144
      5 H2          3.1940    2.3520    5.6900 hc        1 MOL      0.062144
      6 H3          1.5700    2.1150    6.3790 hc        1 MOL      0.062144
      7 N1          0.3130    2.0770    4.1190 n         1 MOL     -0.654928
      8 C3         -0.5690    2.1000    2.8970 c3        1 MOL      0.070370
      9 C4         -0.5860    3.4850    2.2610 c         1 MOL      0.486567
     10 O2         -1.4230    4.3550    2.4630 o         1 MOL     -0.485408
     11 C5         -2.0340    1.6010    3.1740 c3        1 MOL     -0.207292
     12 C6         -2.8050    1.3380    1.9350 c         1 MOL      0.783682
     13 O3         -2.1910    1.3990    0.8310 o         1 MOL     -0.706673
     14 O4         -4.0050    1.2080    2.0000 o         1 MOL     -0.706673
     15 H4         -0.1370    1.8610    5.0000 hn        1 MOL      0.316122
     16 H5         -0.1290    1.3230    2.2620 h1        1 MOL      0.090590
     17 H6         -2.5650    2.2760    3.8450 hc        1 MOL      0.066800
     18 H7         -2.0780    0.6290    3.6600 hc        1 MOL      0.066800
     19 N2          0.4490    3.6190    1.4100 n         1 MOL     -0.185324
     20 C7          0.9630    4.9230    0.8420 c3        1 MOL     -0.251067
     21 C8         -0.0740    5.6500   -0.0120 c         1 MOL      0.588091
     22 O5         -0.1550    6.8560    0.0560 o         1 MOL     -0.583220
     23 C9          2.2900    4.6630    0.1250 c3        1 MOL     -0.136885
     24 C10         3.1120    5.9190   -0.1000 c3        1 MOL      0.158327
     25 C11         4.4880    5.6620   -0.7020 c3        1 MOL     -0.041351
     26 C12         5.2280    6.9400   -0.8660 c3        1 MOL     -0.203154
     27 N3          4.8180    7.7440   -2.0300 n4        1 MOL     -0.321249
     28 H8          1.1000    2.8450    1.4090 hn        1 MOL      0.285153
     29 H9          1.1130    5.5610    1.7120 h1        1 MOL      0.122430
     30 H10         2.0780    4.1850   -0.8330 hc        1 MOL      0.089265
     31 H11         2.8720    3.9810    0.7450 hc        1 MOL      0.089265
     32 H12         3.3680    6.4330    0.8280 hc        1 MOL     -0.012604
     33 H13         2.5590    6.5320   -0.8120 hc        1 MOL     -0.012604
     34 H14         4.4750    5.1870   -1.6840 hc        1 MOL      0.055436
     35 H15         5.0770    5.0560   -0.0170 hc        1 MOL      0.055436
     36 H16         6.2080    6.5740   -1.1770 hx        1 MOL      0.168277
     37 H17         5.2490    7.5120    0.0650 hx        1 MOL      0.168277
     38 H18         3.8680    8.0940   -1.9810 hn        1 MOL      0.321244
     39 H19         5.3460    8.5970   -2.1090 hn        1 MOL      0.321244
     40 H20         4.8160    7.1520   -2.8480 hn        1 MOL      0.321244
     41 N4         -0.9250    4.8920   -0.7300 n         1 MOL     -0.245060
     42 C13        -1.9580    5.4620   -1.6020 c3        1 MOL      0.081503
     43 C14        -3.3120    5.2030   -0.8790 c         1 MOL      0.473937
     44 O6         -4.2950    5.6850   -1.3940 o         1 MOL     -0.564340
     45 C15        -1.9570    4.7610   -3.0140 c3        1 MOL     -0.414941
     46 C16        -2.1270    3.2830   -3.0170 c         1 MOL      0.982003
     47 O7         -2.0940    2.6880   -4.1260 o         1 MOL     -0.814439
     48 O8         -2.1080    2.6340   -1.9750 o         1 MOL     -0.814439
     49 H21        -0.7360    3.9020   -0.8300 hn        1 MOL      0.199525
     50 H22        -1.8730    6.5470   -1.6720 h1        1 MOL      0.077512
     51 H23        -0.9520    4.9590   -3.3990 hc        1 MOL      0.095343
     52 H24        -2.8120    5.1110   -3.5890 hc        1 MOL      0.095343
     53 N5         -3.4100    4.4240    0.2180 n         1 MOL     -0.108776
     54 C17        -4.6390    4.3510    1.0800 c3        1 MOL     -0.040964
     55 C18        -5.6950    3.3550    0.4760 c         1 MOL      0.481867
     56 O9         -6.8970    3.5640    0.7470 o         1 MOL     -0.568158
     57 H25        -2.5520    4.0550    0.6150 hn        1 MOL     -0.008741
     58 H26        -5.1030    5.3220    1.2320 h1        1 MOL      0.086342
     59 H27        -4.3750    4.0680    2.1000 h1        1 MOL      0.086342
     60 N6         -5.3340    2.2640   -0.2320 n         1 MOL     -0.108545
     61 C19        -6.2740    1.4080   -0.9640 c3        1 MOL     -0.074466
     62 C20        -6.7990    0.1730   -0.1980 c         1 MOL      0.313514
     63 O10        -7.7400   -0.5260   -0.6980 o         1 MOL     -0.517520
     64 C21        -5.7250    1.1710   -2.4380 c3        1 MOL     -0.106421
     65 C22        -4.5130    0.2620   -2.4510 c         1 MOL      0.645796
     66 N7         -4.1280   -0.2210   -3.5440 n         1 MOL     -0.740983
     67 O11        -3.8810   -0.0820   -1.4900 o         1 MOL     -0.488524
     68 H28        -4.3650    1.9690   -0.2090 hn        1 MOL     -0.022099
     69 H29        -7.1870    1.9460   -1.2140 h1        1 MOL      0.131021
     70 H30        -5.4530    2.1210   -2.8930 hc        1 MOL      0.072265
     71 H31        -6.4860    0.7350   -3.0780 hc        1 MOL      0.072265
     72 H32        -4.5600   -0.0100   -4.4320 hn        1 MOL      0.346848
     73 H33        -3.3750   -0.8930   -3.5820 hn        1 MOL      0.346848
     74 N8         -6.2780   -0.2720    0.9370 n         1 MOL     -0.016581
     75 C23        -6.6520   -1.4080    1.7880 c3        1 MOL     -0.283701
     76 C24        -5.5450   -2.5220    1.7630 c         1 MOL      0.692366
     77 O12        -5.6890   -3.6240    2.2880 o         1 MOL     -0.567042
     78 H34        -5.5130    0.1750    1.4110 hn        1 MOL      0.209081
     79 H35        -7.5890   -1.8810    1.5000 h1        1 MOL      0.125817
     80 H36        -6.8090   -1.0740    2.8130 h1        1 MOL      0.125817
     81 N9         -4.3360   -2.2710    1.1420 n         1 MOL     -0.592013
     82 C25        -3.3040   -3.2560    0.8680 c3        1 MOL      0.271467
     83 C26        -1.9350   -2.6330    1.0420 c         1 MOL      0.644832
     84 O13        -1.7060   -1.4870    0.6860 o         1 MOL     -0.685053
     85 C27        -3.3080   -3.9480   -0.5090 c3        1 MOL      0.064595
     86 C28        -4.5760   -4.7250   -0.7300 ca        1 MOL     -0.344624
     87 C29        -5.7170   -4.1270   -1.3150 ca        1 MOL      0.115444
     88 C30        -4.6510   -6.0620   -0.2770 ca        1 MOL      0.115444
     89 C31        -6.8960   -4.8490   -1.5330 ca        1 MOL     -0.420992
     90 C32        -5.7930   -6.8600   -0.6100 ca        1 MOL     -0.420992
     91 C33        -6.9370   -6.2310   -1.1390 ca        1 MOL      0.473948
     92 O14        -8.0750   -6.9360   -1.3500 oh        1 MOL     -0.473707
     93 H37        -4.4430   -1.4630    0.5540 hn        1 MOL      0.269103
     94 H38        -3.5610   -4.0240    1.6010 h1        1 MOL      0.026171
     95 H39        -2.4530   -4.6010   -0.6580 hc        1 MOL      0.027548
     96 H40        -3.1370   -3.2080   -1.2780 hc        1 MOL      0.027548
     97 H41        -5.6110   -3.0890   -1.5790 ha        1 MOL      0.056934
     98 H42        -3.8120   -6.5100    0.2280 ha        1 MOL      0.056934
     99 H43        -7.7760   -4.4150   -1.9880 ha        1 MOL      0.179528
    100 H44        -5.7960   -7.9180   -0.3960 ha        1 MOL      0.179528
    101 H45        -7.9540   -7.8500   -1.0870 ho        1 MOL      0.337958
    102 N10        -0.9910   -3.4850    1.4670 n         1 MOL     -0.698724
    103 C34         0.4790   -3.1350    1.5020 c3        1 MOL      0.011845
    104 C35         1.2810   -4.0260    0.5610 c         1 MOL      0.406046
    105 O15         1.2180   -5.2660    0.5320 o         1 MOL     -0.533260
    106 C36         0.9910   -3.2470    2.9880 c3        1 MOL      0.409253
    107 C37         0.2080   -2.3760    4.0420 c3        1 MOL     -0.100622
    108 C38         2.5080   -2.8800    3.1360 c3        1 MOL     -0.586718
    109 C39         0.3730   -2.8730    5.5380 c3        1 MOL     -0.058069
    110 H46        -1.2400   -4.4420    1.6830 hn        1 MOL      0.339489
    111 H47         0.6190   -2.0900    1.1970 h1        1 MOL      0.123222
    112 H48         0.8200   -4.2790    3.2970 hc        1 MOL     -0.045329
    113 H49        -0.8690   -2.3390    3.8400 hc        1 MOL      0.029886
    114 H50         0.6460   -1.3870    3.9390 hc        1 MOL      0.029886
    115 H51         2.6280   -1.9830    2.5290 hc        1 MOL      0.124194
    116 H52         2.7010   -2.7440    4.2010 hc        1 MOL      0.124194
    117 H53         3.1780   -3.6120    2.6840 hc        1 MOL      0.124194
    118 H54        -0.2910   -3.7240    5.6590 hc        1 MOL      0.020865
    119 H55         1.3830   -3.1930    5.8140 hc        1 MOL      0.020865
    120 H56         0.0470   -2.1610    6.2970 hc        1 MOL      0.020865
    121 N11         2.1930   -3.4010   -0.1700 n         1 MOL     -0.163336
    122 C40         3.0020   -3.9510   -1.2310 c3        1 MOL     -0.066237
    123 C41         4.4680   -3.8100   -0.8930 c         1 MOL      0.517639
    124 O16         4.8380   -3.0130   -0.0610 o         1 MOL     -0.496191
    125 C42         2.6540   -3.4120   -2.5860 c3        1 MOL      0.008244
    126 O17         2.8110   -1.9910   -2.6850 oh        1 MOL     -0.597466
    127 H57         2.2250   -2.3940   -0.2050 hn        1 MOL      0.357182
    128 H58         2.8540   -5.0390   -1.2440 h1        1 MOL      0.042962
    129 H59         1.6100   -3.6500   -2.7810 h1        1 MOL      0.069212
    130 H60         3.2930   -3.9350   -3.3070 h1        1 MOL      0.069212
    131 H61         2.2410   -1.6010   -2.0160 ho        1 MOL      0.389024
    132 N12         5.3780   -4.5780   -1.5590 n         1 MOL     -0.368983
    133 C43         6.8260   -4.5950   -1.2500 c3        1 MOL      0.017837
    134 C44         7.5690   -3.2220   -1.3710 c         1 MOL      0.570600
    135 O18         8.3900   -2.9250   -0.5150 o         1 MOL     -0.544700
    136 C45         7.4760   -5.6490   -2.1700 c3        1 MOL     -0.336169
    137 H62         5.0720   -5.1680   -2.3150 hn        1 MOL      0.264929
    138 H63         6.9180   -5.0810   -0.2820 h1        1 MOL      0.110658
    139 H64         8.5180   -5.8390   -1.9080 hc        1 MOL      0.105103
    140 H65         6.8010   -6.4930   -2.0550 hc        1 MOL      0.105103
    141 H66         7.4700   -5.2750   -3.2010 hc        1 MOL      0.105103
    142 N13         7.1780   -2.3250   -2.3230 n         1 MOL     -0.432988
    143 C46         7.6950   -0.9600   -2.2720 c3        1 MOL      0.091309
    144 C47         7.1260   -0.1020   -1.1490 c         1 MOL      0.350346
    145 O19         7.6740    0.9360   -0.8000 o         1 MOL     -0.556009
    146 C48         7.5630   -0.3830   -3.6640 c3        1 MOL     -0.380147
    147 H67         6.4810   -2.5490   -3.0170 hn        1 MOL      0.279434
    148 H68         8.7640   -0.9820   -2.0550 h1        1 MOL      0.116145
    149 H69         6.5180   -0.2880   -3.9690 hc        1 MOL      0.107905
    150 H70         7.8240    0.6670   -3.6510 hc        1 MOL      0.107905
    151 H71         8.1960   -0.8730   -4.4070 hc        1 MOL      0.107905
    152 N14         5.9910   -0.4240   -0.5920 n         1 MOL      0.149586
    153 C49         5.4380    0.2540    0.5840 c3        1 MOL     -0.288258
    154 C50         6.0890   -0.1730    1.8990 c         1 MOL      0.615562
    155 O20         6.3600    0.7120    2.6400 o         1 MOL     -0.558768
    156 C51         3.9220    0.0730    0.5590 c3        1 MOL      0.248156
    157 C52         3.1940    0.7540   -0.5980 c3        1 MOL      0.022183
    158 C53         1.7240    0.4260   -0.6270 c         1 MOL      0.827385
    159 O21         0.9080    1.3240   -0.2290 o         1 MOL     -0.862482
    160 O22         1.3090   -0.7550   -0.8860 o         1 MOL     -0.862482
    161 H72         5.5010   -1.2260   -0.9610 hn        1 MOL      0.040648
    162 H73         5.5820    1.3390    0.5690 h1        1 MOL      0.124311
    163 H74         3.4720    0.4630    1.4750 hc        1 MOL     -0.036889
    164 H75         3.5740   -0.9510    0.7080 hc        1 MOL     -0.036889
    165 H76         3.7130    0.5650   -1.5390 hc        1 MOL     -0.084868
    166 H77         3.3450    1.8230   -0.4410 hc        1 MOL     -0.084868
    167 N15         6.4340   -1.3990    2.0860 n         1 MOL     -0.252389
    168 C54         7.4400   -1.8350    3.0810 c3        1 MOL     -0.382307
    169 H78         7.2420   -2.8670    3.3690 h1        1 MOL      0.151371
    170 H79         8.4360   -1.7650    2.6460 h1        1 MOL      0.151371
    171 H80         7.3820   -1.1950    3.9620 h1        1 MOL      0.151371
    172 H81         6.2470   -2.0200    1.3060 hn        1 MOL      0.207316
    173 Ca1        -1.2700    0.3080   -1.2110 Ca        1 MOL      1.808266
    174 O23        -1.7480   -1.7690   -2.8800 oh        1 MOL     -0.934895
    175 H82        -1.5040   -1.6090   -3.7970 ho        1 MOL      0.443572
    176 H83        -1.5440   -2.6850   -2.7310 ho        1 MOL      0.443572
    177 O24        -0.0990    0.9930   -3.4360 oh        1 MOL     -0.934895
    178 H84        -0.8260    1.4300   -3.8790 ho        1 MOL      0.443572
    179 H85         0.6810    1.3480   -3.8540 ho        1 MOL      0.443572
@<TRIPOS>BOND
     1    1    2 1   
     2    1    4 1   
     3    1    5 1   
     4    1    6 1   
     5    2    3 2   
     6    2    7 1   
     7    7    8 1   
     8    7   15 1   
     9    8    9 1   
    10    8   11 1   
    11    8   16 1   
    12    9   10 2   
    13    9   19 1   
    14   11   12 1   
    15   11   17 1   
    16   11   18 1   
    17   12   13 1   
    18   12   14 1   
    19   19   20 1   
    20   19   28 1   
    21   20   21 1   
    22   20   23 1   
    23   20   29 1   
    24   21   22 2   
    25   21   41 1   
    26   23   24 1   
    27   23   30 1   
    28   23   31 1   
    29   24   25 1   
    30   24   32 1   
    31   24   33 1   
    32   25   26 1   
    33   25   34 1   
    34   25   35 1   
    35   26   27 1   
    36   26   36 1   
    37   26   37 1   
    38   27   38 1   
    39   27   39 1   
    40   27   40 1   
    41   41   42 1   
    42   41   49 1   
    43   42   43 1   
    44   42   45 1   
    45   42   50 1   
    46   43   44 2   
    47   43   53 1   
    48   45   46 1   
    49   45   51 1   
    50   45   52 1   
    51   46   47 1   
    52   46   48 1   
    53   53   54 1   
    54   53   57 1   
    55   54   55 1   
    56   54   58 1   
    57   54   59 1   
    58   55   56 2   
    59   55   60 1   
    60   60   61 1   
    61   60   68 1   
    62   61   62 1   
    63   61   64 1   
    64   61   69 1   
    65   62   63 2   
    66   62   74 1   
    67   64   65 1   
    68   64   70 1   
    69   64   71 1   
    70   65   66 1   
    71   65   67 2   
    72   66   72 1   
    73   66   73 1   
    74   74   75 1   
    75   74   78 1   
    76   75   76 1   
    77   75   79 1   
    78   75   80 1   
    79   76   77 2   
    80   76   81 1   
    81   81   82 1   
    82   81   93 1   
    83   82   83 1   
    84   82   85 1   
    85   82   94 1   
    86   83   84 2   
    87   83  102 1   
    88   85   86 1   
    89   85   95 1   
    90   85   96 1   
    91   86   87 ar  
    92   86   88 ar  
    93   87   89 ar  
    94   87   97 1   
    95   88   90 ar  
    96   88   98 1   
    97   89   91 ar  
    98   89   99 1   
    99   90   91 ar  
   100   90  100 1   
   101   91   92 1   
   102   92  101 1   
   103  102  103 1   
   104  102  110 1   
   105  103  104 1   
   106  103  106 1   
   107  103  111 1   
   108  104  105 2   
   109  104  121 1   
   110  106  107 1   
   111  106  108 1   
   112  106  112 1   
   113  107  109 1   
   114  107  113 1   
   115  107  114 1   
   116  108  115 1   
   117  108  116 1   
   118  108  117 1   
   119  109  118 1   
   120  109  119 1   
   121  109  120 1   
   122  121  122 1   
   123  121  127 1   
   124  122  123 1   
   125  122  125 1   
   126  122  128 1   
   127  123  124 2   
   128  123  132 1   
   129  125  126 1   
   130  125  129 1   
   131  125  130 1   
   132  126  131 1   
   133  132  133 1   
   134  132  137 1   
   135  133  134 1   
   136  133  136 1   
   137  133  138 1   
   138  134  135 2   
   139  134  142 1   
   140  136  139 1   
   141  136  140 1   
   142  136  141 1   
   143  142  143 1   
   144  142  147 1   
   145  143  144 1   
   146  143  146 1   
   147  143  148 1   
   148  144  145 2   
   149  144  152 1   
   150  146  149 1   
   151  146  150 1   
   152  146  151 1   
   153  152  153 1   
   154  152  161 1   
   155  153  154 1   
   156  153  156 1   
   157  153  162 1   
   158  154  155 2   
   159  154  167 1   
   160  156  157 1   
   161  156  163 1   
   162  156  164 1   
   163  157  158 1   
   164  157  165 1   
   165  157  166 1   
   166  158  159 1   
   167  158  160 1   
   168  167  168 1   
   169  167  172 1   
   170  168  169 1   
   171  168  170 1   
   172  168  171 1   
   173  174  175 1   
   174  174  176 1   
   175  177  178 1   
   176  177  179 1   
@<TRIPOS>SUBSTRUCTURE
     1 MOL         1 TEMP              0 ****  ****    0 ROOT
