@<TRIPOS>MOLECULE
MOL
  189   185     1     0     0
SMALL
resp


@<TRIPOS>ATOM
      1 C1          0.2080   -4.2750    5.5780 c3        1 MOL     -0.401528
      2 C2          0.8330   -3.7750    4.2870 c         1 MOL      0.799067
      3 O1          0.8780   -2.5790    4.0820 o         1 MOL     -0.601501
      4 H1         -0.3830   -5.1680    5.3740 hc        1 MOL      0.102074
      5 H2          0.9940   -4.5170    6.2930 hc        1 MOL      0.102074
      6 H3         -0.4380   -3.5010    5.9940 hc        1 MOL      0.102074
      7 N1          1.4190   -4.6610    3.4290 n         1 MOL     -0.712304
      8 C3          2.0900   -4.2260    2.2160 c3        1 MOL      0.381976
      9 C4          1.9520   -5.2120    1.0310 c         1 MOL      0.374405
     10 O2          2.1420   -6.4290    1.2400 o         1 MOL     -0.586610
     11 C5          3.5250   -4.0110    2.5350 c3        1 MOL     -0.350373
     12 C6          4.2970   -3.2130    1.4690 c         1 MOL      0.752078
     13 O3          5.4720   -2.8740    1.6540 o         1 MOL     -0.688319
     14 O4          3.6560   -2.5190    0.6360 o         1 MOL     -0.688319
     15 H4          1.3460   -5.6590    3.5590 hn        1 MOL      0.325920
     16 H5          1.6050   -3.3060    1.9130 h1        1 MOL      0.018099
     17 H6          4.0810   -4.9340    2.7250 hc        1 MOL      0.081805
     18 H7          3.4500   -3.3650    3.4110 hc        1 MOL      0.081805
     19 N2          1.6260   -4.7130   -0.1150 n         1 MOL     -0.077430
     20 C7          1.4820   -5.4690   -1.3440 c3        1 MOL     -0.166867
     21 C8          2.3820   -5.0640   -2.4800 c         1 MOL      0.463914
     22 O5          2.4910   -5.7880   -3.5150 o         1 MOL     -0.600719
     23 C9          0.0570   -5.4210   -1.9410 c3        1 MOL      0.241190
     24 C10        -0.3430   -4.0210   -2.3960 c3        1 MOL      0.052899
     25 C11        -0.9180   -6.0190   -0.8690 c3        1 MOL     -0.207104
     26 C12        -1.6780   -4.0520   -3.0510 c3        1 MOL     -0.264813
     27 H8          1.3830   -3.7310   -0.0640 hn        1 MOL      0.148079
     28 H9          1.6300   -6.5260   -1.1150 h1        1 MOL      0.102783
     29 H10         0.0380   -6.1630   -2.7370 hc        1 MOL     -0.031462
     30 H11         0.3760   -3.6530   -3.1240 hc        1 MOL      0.047497
     31 H12        -0.4040   -3.4040   -1.4900 hc        1 MOL      0.047497
     32 H13        -0.6060   -7.0150   -0.5470 hc        1 MOL      0.035230
     33 H14        -1.0450   -5.3230   -0.0460 hc        1 MOL      0.035230
     34 H15        -1.8840   -6.2370   -1.3260 hc        1 MOL      0.035230
     35 H16        -2.3900   -4.1220   -2.2250 hc        1 MOL      0.051305
     36 H17        -1.8150   -3.1520   -3.6380 hc        1 MOL      0.051305
     37 H18        -1.7730   -4.9380   -3.6800 hc        1 MOL      0.051305
     38 N3          3.1080   -3.9600   -2.3920 n         1 MOL     -0.273184
     39 C13         3.9980   -3.4390   -3.4420 c3        1 MOL      0.036018
     40 C14         5.3740   -2.9500   -2.9640 c         1 MOL      0.428367
     41 O6          6.2460   -2.8660   -3.8420 o         1 MOL     -0.566428
     42 C15         3.2960   -2.2690   -4.2130 c3        1 MOL     -0.290333
     43 C16         2.7390   -1.1830   -3.2730 c         1 MOL      0.646021
     44 O7          3.2420   -1.1770   -2.1380 o         1 MOL     -0.655687
     45 O8          1.8370   -0.3980   -3.6110 o         1 MOL     -0.655687
     46 H19         2.9420   -3.4200   -1.5590 hn        1 MOL      0.181111
     47 H20         4.1820   -4.2430   -4.1610 h1        1 MOL      0.115731
     48 H21         2.5500   -2.6700   -4.9060 hc        1 MOL      0.089645
     49 H22         3.9440   -1.7540   -4.9130 hc        1 MOL      0.089645
     50 N4          5.5990   -2.7340   -1.6420 n         1 MOL     -0.233969
     51 C17         6.8820   -2.2640   -1.1940 c3        1 MOL     -0.074695
     52 C18         7.1320   -0.7670   -1.4440 c         1 MOL      0.479414
     53 O9          8.1860   -0.2910   -1.0500 o         1 MOL     -0.620940
     54 H23         4.7870   -2.6240   -1.0390 hn        1 MOL      0.068843
     55 H24         7.6900   -2.8200   -1.6720 h1        1 MOL      0.091231
     56 H25         7.1240   -2.5610   -0.1700 h1        1 MOL      0.091231
     57 N5          6.1220    0.0080   -1.8310 n         1 MOL     -0.305130
     58 C19         6.3120    1.4390   -2.2510 c3        1 MOL     -0.087543
     59 C20         6.7240    2.3790   -1.1800 c         1 MOL      0.492456
     60 O10         7.1260    3.5280   -1.4660 o         1 MOL     -0.579972
     61 C21         5.1200    1.9910   -3.0350 c3        1 MOL     -0.263801
     62 C22         3.7990    2.2100   -2.1460 c         1 MOL      0.824184
     63 O11         3.7830    1.6930   -1.0200 o         1 MOL     -0.711176
     64 O12         2.8960    2.9180   -2.5880 o         1 MOL     -0.711176
     65 H26         5.2250   -0.4660   -1.8540 hn        1 MOL      0.325065
     66 H27         7.1900    1.4370   -2.8930 h1        1 MOL      0.124593
     67 H28         4.8130    1.2620   -3.7900 hc        1 MOL      0.072617
     68 H29         5.2450    2.9010   -3.6090 hc        1 MOL      0.072617
     69 N6          6.7110    1.9870    0.1300 n         1 MOL     -0.090071
     70 C23         7.2170    2.9290    1.1500 c3        1 MOL     -0.416894
     71 C24         6.0120    3.8310    1.6610 c         1 MOL      0.605111
     72 O13         6.2920    4.7650    2.4510 o         1 MOL     -0.581655
     73 H30         6.5780    1.0430    0.4570 hn        1 MOL      0.264114
     74 H31         7.9540    3.6150    0.7410 h1        1 MOL      0.149154
     75 H32         7.5460    2.2510    1.9410 h1        1 MOL      0.149154
     76 N7          4.7450    3.5040    1.2540 n         1 MOL     -0.308800
     77 C25         3.4970    4.1930    1.5940 c3        1 MOL     -0.209143
     78 C26         2.4290    3.1660    1.9490 c         1 MOL      0.647135
     79 O14         2.5530    1.9670    1.7530 o         1 MOL     -0.594533
     80 C27         3.1490    5.0000    0.3170 c3        1 MOL      0.187167
     81 C28         4.2380    5.9040   -0.0850 c3        1 MOL     -0.311492
     82 C29         3.5900    7.1030   -0.8600 c         1 MOL      0.654635
     83 N8          3.5070    7.1310   -2.2110 n         1 MOL     -0.802915
     84 O15         3.1540    8.0630   -0.1800 o         1 MOL     -0.582951
     85 H33         4.6340    2.7540    0.5910 hn        1 MOL      0.177680
     86 H34         3.5650    4.9610    2.3520 h1        1 MOL      0.097591
     87 H35         2.2960    5.6530    0.5240 hc        1 MOL      0.008027
     88 H36         2.8520    4.3850   -0.5250 hc        1 MOL      0.008027
     89 H37         5.0560    5.4130   -0.6030 hc        1 MOL      0.107052
     90 H38         4.8050    6.2330    0.7900 hc        1 MOL      0.107052
     91 H39         3.7030    6.3300   -2.7900 hn        1 MOL      0.359812
     92 H40         3.1550    7.9210   -2.7450 hn        1 MOL      0.359812
     93 N9          1.3240    3.6660    2.5170 n         1 MOL     -0.568912
     94 C30         0.0900    2.8910    2.7330 c3        1 MOL      0.084851
     95 C31        -0.9710    3.2850    1.6220 c         1 MOL      0.438565
     96 O16        -1.2410    4.4510    1.5090 o         1 MOL     -0.582535
     97 C32        -0.5770    3.0410    4.1180 c3        1 MOL      0.453162
     98 C33        -1.5750    1.8840    4.3120 c3        1 MOL     -0.489672
     99 C34         0.3510    3.0200    5.3350 c3        1 MOL     -0.489672
    100 H41         1.4220    4.5850    2.9220 hn        1 MOL      0.319008
    101 H42         0.2080    1.8140    2.6470 h1        1 MOL      0.049970
    102 H43        -1.0690    4.0040    4.2590 hc        1 MOL     -0.065368
    103 H44        -2.3680    1.9660    3.5660 hc        1 MOL      0.105698
    104 H45        -1.0730    0.9240    4.2470 hc        1 MOL      0.105698
    105 H46        -1.9680    1.9120    5.3290 hc        1 MOL      0.105698
    106 H47         0.7460    2.0340    5.5680 hc        1 MOL      0.105698
    107 H48         1.0250    3.8520    5.1240 hc        1 MOL      0.105698
    108 H49        -0.2330    3.2600    6.2330 hc        1 MOL      0.105698
    109 N10        -1.6420    2.3240    1.0590 n         1 MOL     -0.291887
    110 C35        -2.7930    2.5080    0.1140 c3        1 MOL      0.136703
    111 C36        -4.0870    2.3100    0.9000 c         1 MOL      0.253851
    112 O17        -4.1170    1.6200    1.8780 o         1 MOL     -0.279019
    113 C37        -2.6850    1.4040   -0.9440 c3        1 MOL     -0.423801
    114 C38        -3.6860    1.4150   -2.0510 c         1 MOL      0.813764
    115 N11        -3.7640    2.4510   -2.8170 n         1 MOL     -0.786689
    116 O18        -4.5470    0.5450   -2.1800 o         1 MOL     -0.636656
    117 H50        -1.3880    1.3520    1.1920 hn        1 MOL      0.340225
    118 H51        -2.7430    3.5290   -0.2630 h1        1 MOL      0.063254
    119 H52        -2.7360    0.3830   -0.5670 hc        1 MOL      0.133694
    120 H53        -1.6980    1.3960   -1.4060 hc        1 MOL      0.133694
    121 H54        -3.1630    3.2630   -2.7410 hn        1 MOL      0.338470
    122 H55        -4.3220    2.4500   -3.6580 hn        1 MOL      0.338470
    123 N12        -5.1910    2.8320    0.3750 n         1 MOL     -0.241048
    124 C39        -6.5320    2.4200    0.7340 c3        1 MOL      0.109342
    125 C40        -6.8000    0.9090    0.8630 c         1 MOL      0.256224
    126 O19        -7.3630    0.4610    1.8690 o         1 MOL     -0.542077
    127 C41        -7.5860    3.1330   -0.1420 c3        1 MOL     -0.221458
    128 C42        -7.4900    2.9680   -1.5900 ca        1 MOL      0.102684
    129 C43        -6.7240    3.9080   -2.3470 ca        1 MOL     -0.204531
    130 C44        -8.1910    1.9470   -2.1630 ca        1 MOL     -0.204531
    131 C45        -6.5840    3.6530   -3.7570 ca        1 MOL     -0.250455
    132 C46        -7.9990    1.6810   -3.5490 ca        1 MOL     -0.250455
    133 C47        -7.2400    2.5790   -4.3750 ca        1 MOL      0.393225
    134 O20        -7.2600    2.4610   -5.7100 oh        1 MOL     -0.601361
    135 H56        -5.1030    3.4750   -0.3900 hn        1 MOL      0.152606
    136 H57        -6.7630    2.7810    1.7420 h1        1 MOL      0.036559
    137 H58        -7.5530    4.2150    0.0510 hc        1 MOL      0.081401
    138 H59        -8.5820    2.7820    0.1140 hc        1 MOL      0.081401
    139 H60        -6.1420    4.7150   -1.9290 ha        1 MOL      0.143705
    140 H61        -8.7540    1.2490   -1.5690 ha        1 MOL      0.143705
    141 H62        -5.9750    4.3470   -4.3240 ha        1 MOL      0.122397
    142 H63        -8.5360    0.8710   -4.0050 ha        1 MOL      0.122397
    143 H64        -7.5370    1.5920   -5.9960 ho        1 MOL      0.434545
    144 N13        -6.2680    0.0710   -0.0150 n         1 MOL      0.102657
    145 C48        -6.3990   -1.3970    0.0110 c3        1 MOL     -0.151410
    146 C49        -5.5730   -2.0780    1.1440 c         1 MOL      0.521718
    147 O21        -6.0490   -2.9780    1.7730 o         1 MOL     -0.497838
    148 C50        -6.2000   -2.0530   -1.3270 c3        1 MOL      0.086592
    149 C51        -7.1130   -1.7580   -2.5300 c3        1 MOL      0.011906
    150 C52        -8.5570   -1.9990   -2.1310 c         1 MOL      0.576684
    151 O22        -9.3170   -1.0220   -1.8550 o         1 MOL     -0.686107
    152 O23        -8.9640   -3.1870   -2.0100 o         1 MOL     -0.686107
    153 H65        -5.8320    0.4140   -0.8560 hn        1 MOL      0.323098
    154 H66        -7.4460   -1.4870    0.2820 h1        1 MOL      0.119806
    155 H67        -6.2800   -3.1350   -1.1740 hc        1 MOL     -0.029991
    156 H68        -5.1940   -1.7670   -1.6610 hc        1 MOL     -0.029991
    157 H69        -6.9030   -2.3680   -3.4030 hc        1 MOL     -0.038291
    158 H70        -6.8800   -0.7270   -2.7900 hc        1 MOL     -0.038291
    159 N14        -4.3470   -1.5840    1.4660 n         1 MOL     -0.309511
    160 C53        -3.5770   -2.1260    2.5790 c3        1 MOL     -0.059400
    161 C54        -4.1530   -1.7010    3.9610 c         1 MOL      0.398013
    162 O24        -4.1900   -2.4140    5.0060 o         1 MOL     -0.553358
    163 C55        -2.0660   -1.7320    2.3800 c3        1 MOL     -0.074495
    164 C56        -1.4660   -1.9820    1.0720 c3        1 MOL      0.126219
    165 C57        -0.1610   -1.2800    0.8110 c         1 MOL      0.846095
    166 O25         0.6620   -1.9830    0.2040 o         1 MOL     -0.805727
    167 O26         0.0720   -0.0560    1.1250 o         1 MOL     -0.805727
    168 H71        -4.1500   -0.6350    1.1790 hn        1 MOL     -0.008700
    169 H72        -3.6790   -3.2080    2.5740 h1        1 MOL      0.091302
    170 H73        -1.4110   -2.2410    3.0880 hc        1 MOL      0.033944
    171 H74        -1.9910   -0.6730    2.6360 hc        1 MOL      0.033944
    172 H75        -2.0630   -1.7900    0.1780 hc        1 MOL     -0.033893
    173 H76        -1.1950   -3.0370    1.0870 hc        1 MOL     -0.033893
    174 N15        -4.4800   -0.3730    4.0190 n         1 MOL      0.013203
    175 C58        -4.8410    0.3600    5.2610 c3        1 MOL     -0.184387
    176 H77        -4.4980    1.3920    5.1860 h1        1 MOL      0.064877
    177 H78        -5.9230    0.3460    5.3910 h1        1 MOL      0.064877
    178 H79        -4.3660   -0.1190    6.1170 h1        1 MOL      0.064877
    179 H80        -4.4480    0.1620    3.1550 hn        1 MOL      0.075186
    180 Ca1         2.5800   -0.1550    0.1780 Ca        1 MOL      1.706482
    181 O27         2.6510   -0.7840    2.8270 oh        1 MOL     -0.820029
    182 O28         0.9030    0.9950   -1.5850 oh        1 MOL     -0.820029
    183 H81         2.0520   -1.3120    3.3680 ho        1 MOL      0.392359
    184 H82         1.0510    0.5110   -2.3960 ho        1 MOL      0.392359
    185 H83         3.0750   -0.1880    3.4480 ho        1 MOL      0.392359
    186 H84         1.4430    1.7770   -1.6750 ho        1 MOL      0.392359
    187 O29         5.1050   -0.0850    1.1510 oh        1 MOL     -0.820029
    188 H85         5.1500   -1.0350    1.2570 ho        1 MOL      0.392359
    189 H86         5.2870    0.2660    2.0240 ho        1 MOL      0.392359
@<TRIPOS>BOND
     1    1    2 1   
     2    1    4 1   
     3    1    5 1   
     4    1    6 1   
     5    2    3 2   
     6    2    7 1   
     7    7    8 1   
     8    7   15 1   
     9    8    9 1   
    10    8   11 1   
    11    8   16 1   
    12    9   10 2   
    13    9   19 1   
    14   11   12 1   
    15   11   17 1   
    16   11   18 1   
    17   12   13 1   
    18   12   14 1   
    19   19   20 1   
    20   19   27 1   
    21   20   21 1   
    22   20   23 1   
    23   20   28 1   
    24   21   22 2   
    25   21   38 1   
    26   23   24 1   
    27   23   25 1   
    28   23   29 1   
    29   24   26 1   
    30   24   30 1   
    31   24   31 1   
    32   25   32 1   
    33   25   33 1   
    34   25   34 1   
    35   26   35 1   
    36   26   36 1   
    37   26   37 1   
    38   38   39 1   
    39   38   46 1   
    40   39   40 1   
    41   39   42 1   
    42   39   47 1   
    43   40   41 2   
    44   40   50 1   
    45   42   43 1   
    46   42   48 1   
    47   42   49 1   
    48   43   44 1   
    49   43   45 1   
    50   50   51 1   
    51   50   54 1   
    52   51   52 1   
    53   51   55 1   
    54   51   56 1   
    55   52   53 2   
    56   52   57 1   
    57   57   58 1   
    58   57   65 1   
    59   58   59 1   
    60   58   61 1   
    61   58   66 1   
    62   59   60 2   
    63   59   69 1   
    64   61   62 1   
    65   61   67 1   
    66   61   68 1   
    67   62   63 1   
    68   62   64 1   
    69   69   70 1   
    70   69   73 1   
    71   70   71 1   
    72   70   74 1   
    73   70   75 1   
    74   71   72 2   
    75   71   76 1   
    76   76   77 1   
    77   76   85 1   
    78   77   78 1   
    79   77   80 1   
    80   77   86 1   
    81   78   79 2   
    82   78   93 1   
    83   80   81 1   
    84   80   87 1   
    85   80   88 1   
    86   81   82 1   
    87   81   89 1   
    88   81   90 1   
    89   82   83 1   
    90   82   84 2   
    91   83   91 1   
    92   83   92 1   
    93   93   94 1   
    94   93  100 1   
    95   94   95 1   
    96   94   97 1   
    97   94  101 1   
    98   95   96 2   
    99   95  109 1   
   100   97   98 1   
   101   97   99 1   
   102   97  102 1   
   103   98  103 1   
   104   98  104 1   
   105   98  105 1   
   106   99  106 1   
   107   99  107 1   
   108   99  108 1   
   109  109  110 1   
   110  109  117 1   
   111  110  111 1   
   112  110  113 1   
   113  110  118 1   
   114  111  112 2   
   115  111  123 1   
   116  113  114 1   
   117  113  119 1   
   118  113  120 1   
   119  114  115 1   
   120  114  116 2   
   121  115  121 1   
   122  115  122 1   
   123  123  124 1   
   124  123  135 1   
   125  124  125 1   
   126  124  127 1   
   127  124  136 1   
   128  125  126 2   
   129  125  144 1   
   130  127  128 1   
   131  127  137 1   
   132  127  138 1   
   133  128  129 ar  
   134  128  130 ar  
   135  129  131 ar  
   136  129  139 1   
   137  130  132 ar  
   138  130  140 1   
   139  131  133 ar  
   140  131  141 1   
   141  132  133 ar  
   142  132  142 1   
   143  133  134 1   
   144  134  143 1   
   145  144  145 1   
   146  144  153 1   
   147  145  146 1   
   148  145  148 1   
   149  145  154 1   
   150  146  147 2   
   151  146  159 1   
   152  148  149 1   
   153  148  155 1   
   154  148  156 1   
   155  149  150 1   
   156  149  157 1   
   157  149  158 1   
   158  150  151 1   
   159  150  152 1   
   160  159  160 1   
   161  159  168 1   
   162  160  161 1   
   163  160  163 1   
   164  160  169 1   
   165  161  162 2   
   166  161  174 1   
   167  163  164 1   
   168  163  170 1   
   169  163  171 1   
   170  164  165 1   
   171  164  172 1   
   172  164  173 1   
   173  165  166 1   
   174  165  167 1   
   175  174  175 1   
   176  174  179 1   
   177  175  176 1   
   178  175  177 1   
   179  175  178 1   
   180  181  183 1   
   181  181  185 1   
   182  182  184 1   
   183  182  186 1   
   184  187  188 1   
   185  187  189 1   
@<TRIPOS>SUBSTRUCTURE
     1 MOL         1 TEMP              0 ****  ****    0 ROOT
