@<TRIPOS>MOLECULE
MOL
  169   169     1     0     0
SMALL
resp


@<TRIPOS>ATOM
      1 C1          0.0710    4.7800    5.7840 c3        1 MOL     -0.410893
      2 C2         -0.2330    4.3660    4.3090 c         1 MOL      0.711198
      3 O1          0.6560    4.0590    3.5400 o         1 MOL     -0.569810
      4 H1          0.8350    4.1210    6.1960 hc        1 MOL      0.096086
      5 H2          0.4290    5.8090    5.8070 hc        1 MOL      0.096086
      6 H3         -0.8390    4.6980    6.3800 hc        1 MOL      0.096086
      7 N1         -1.5090    4.2260    3.9400 n         1 MOL     -0.579098
      8 C3         -1.8910    3.5910    2.6680 c3        1 MOL      0.200048
      9 C4         -2.1870    4.6960    1.6880 c         1 MOL      0.452657
     10 O2         -2.7160    5.7890    2.1140 o         1 MOL     -0.585905
     11 C5         -3.0750    2.6680    2.9070 c3        1 MOL     -0.180856
     12 C6         -3.5050    1.9830    1.6360 c         1 MOL      0.839348
     13 O3         -4.4170    2.4880    0.9670 o         1 MOL     -0.778475
     14 O4         -2.8930    0.9660    1.2860 o         1 MOL     -0.778475
     15 H4         -2.2210    4.6370    4.5290 hn        1 MOL      0.307818
     16 H5         -1.0740    2.9770    2.2840 h1        1 MOL      0.053067
     17 H6         -3.9040    3.1700    3.4310 hc        1 MOL      0.019602
     18 H7         -2.8030    1.8940    3.6230 hc        1 MOL      0.019602
     19 N2         -1.9210    4.4860    0.3740 n         1 MOL     -0.318532
     20 C7         -2.1280    5.4730   -0.7500 c3        1 MOL      0.170330
     21 C8         -2.9560    4.9130   -1.9040 c         1 MOL      0.591780
     22 O5         -2.9700    5.6010   -2.9200 o         1 MOL     -0.615157
     23 C9         -0.7030    6.0050   -1.0380 c3        1 MOL     -0.347923
     24 H8         -1.5100    3.6100    0.0780 hn        1 MOL      0.243667
     25 H9         -2.8370    6.2520   -0.4650 h1        1 MOL      0.031155
     26 H10        -0.1100    6.3000   -0.1800 hc        1 MOL      0.088270
     27 H11        -0.1140    5.1850   -1.4470 hc        1 MOL      0.088270
     28 H12        -0.6240    6.7110   -1.8630 hc        1 MOL      0.088270
     29 N3         -3.6690    3.8500   -1.8180 n         1 MOL     -0.345486
     30 C10        -4.4420    3.3470   -2.9880 c3        1 MOL      0.029207
     31 C11        -5.7930    2.7430   -2.6110 c         1 MOL      0.456005
     32 O6         -6.6330    2.6240   -3.5300 o         1 MOL     -0.565490
     33 C12        -3.5870    2.4250   -3.8350 c3        1 MOL     -0.095650
     34 C13        -2.9670    1.3010   -2.9880 c         1 MOL      0.679763
     35 O7         -3.6550    0.7470   -2.0800 o         1 MOL     -0.709048
     36 O8         -1.7620    0.9710   -3.1490 o         1 MOL     -0.709048
     37 H13        -3.8390    3.4680   -0.9010 hn        1 MOL      0.154209
     38 H14        -4.7970    4.1340   -3.6650 h1        1 MOL      0.070912
     39 H15        -2.8110    2.9290   -4.4200 hc        1 MOL      0.033173
     40 H16        -4.2490    1.8990   -4.5190 hc        1 MOL      0.033173
     41 N4         -6.0960    2.3430   -1.3880 n         1 MOL     -0.326852
     42 C14        -7.3330    1.7890   -0.9900 c3        1 MOL     -0.155342
     43 C15        -7.5350    0.3170   -1.3410 c         1 MOL      0.433476
     44 O9         -8.6630   -0.2200   -1.2820 o         1 MOL     -0.603738
     45 H17        -5.3860    2.3510   -0.6610 hn        1 MOL      0.348794
     46 H18        -8.0680    2.4770   -1.4240 h1        1 MOL      0.106840
     47 H19        -7.5030    1.9490    0.0710 h1        1 MOL      0.106840
     48 N5         -6.4370   -0.4230   -1.5330 n         1 MOL     -0.074151
     49 C16        -6.5340   -1.8980   -1.8930 c3        1 MOL     -0.058065
     50 C17        -6.5420   -2.8900   -0.6680 c         1 MOL      0.426311
     51 O10        -6.4770   -4.1060   -0.8180 o         1 MOL     -0.514038
     52 C18        -5.5140   -2.3380   -2.9200 c3        1 MOL     -0.252355
     53 C19        -4.0440   -2.3720   -2.3250 c         1 MOL      0.664633
     54 N6         -3.0460   -2.7650   -3.0870 n         1 MOL     -0.712653
     55 O11        -3.8120   -1.9190   -1.1560 o         1 MOL     -0.678345
     56 H20        -5.5350   -0.0320   -1.3150 hn        1 MOL      0.143457
     57 H21        -7.5250   -2.0260   -2.3000 h1        1 MOL      0.129077
     58 H22        -5.4760   -1.5850   -3.7130 hc        1 MOL      0.088008
     59 H23        -5.7430   -3.3240   -3.2990 hc        1 MOL      0.088008
     60 H24        -3.3050   -3.3220   -3.8880 hn        1 MOL      0.348043
     61 H25        -2.1410   -2.6530   -2.6510 hn        1 MOL      0.348043
     62 N7         -6.5920   -2.3990    0.5150 n         1 MOL     -0.233351
     63 C20        -6.6040   -3.2300    1.7420 c3        1 MOL     -0.243709
     64 C21        -5.4150   -4.1470    1.9420 c         1 MOL      0.574372
     65 O12        -5.5100   -5.0530    2.7730 o         1 MOL     -0.591466
     66 H26        -6.5410   -1.4020    0.6790 hn        1 MOL      0.254156
     67 H27        -7.5320   -3.7890    1.6790 h1        1 MOL      0.119330
     68 H28        -6.6290   -2.5930    2.6250 h1        1 MOL      0.119330
     69 N8         -4.2690   -3.8550    1.3240 n         1 MOL     -0.164226
     70 C22        -2.8930   -4.4470    1.6610 c3        1 MOL     -0.350420
     71 C23        -1.8250   -3.3470    1.8130 c         1 MOL      0.637071
     72 O13        -1.8620   -2.3430    1.0680 o         1 MOL     -0.555703
     73 C24        -2.4480   -5.5020    0.5870 c3        1 MOL      0.545950
     74 C25        -3.2340   -6.7880    0.7440 c3        1 MOL     -0.403489
     75 O14        -2.5980   -5.0110   -0.7020 oh        1 MOL     -0.563568
     76 H29        -4.2920   -2.9700    0.8340 hn        1 MOL      0.213855
     77 H30        -2.9230   -4.9690    2.6210 h1        1 MOL      0.125103
     78 H31        -1.3940   -5.7310    0.7750 h1        1 MOL     -0.059416
     79 H32        -2.1460   -4.1610   -0.6780 ho        1 MOL      0.302338
     80 H33        -2.9640   -7.3170    1.6650 hc        1 MOL      0.100844
     81 H34        -4.2990   -6.5310    0.6970 hc        1 MOL      0.100844
     82 H35        -3.0210   -7.4680   -0.0750 hc        1 MOL      0.100844
     83 N9         -0.8180   -3.4750    2.7480 n         1 MOL     -0.528621
     84 C26         0.4710   -2.6540    2.5350 c3        1 MOL      0.013233
     85 C27         1.2380   -3.2250    1.2920 c         1 MOL      0.612414
     86 O15         1.3900   -4.4090    1.0720 o         1 MOL     -0.584342
     87 C28         1.3410   -2.6260    3.8050 c3        1 MOL      0.204818
     88 C29         0.6800   -1.8490    4.9410 c3        1 MOL      0.102302
     89 C30         2.7830   -2.2340    3.7480 c3        1 MOL     -0.434247
     90 C31         0.2640   -0.4050    4.6740 c3        1 MOL     -0.177272
     91 H36        -0.8800   -4.3810    3.1820 hn        1 MOL      0.298321
     92 H37         0.3190   -1.5940    2.3150 h1        1 MOL      0.038596
     93 H38         1.2490   -3.6660    4.1240 hc        1 MOL     -0.041495
     94 H39         1.3430   -1.9070    5.8090 hc        1 MOL     -0.032093
     95 H40        -0.1550   -2.4210    5.3260 hc        1 MOL     -0.032093
     96 H41         2.7830   -1.1770    3.4860 hc        1 MOL      0.099251
     97 H42         3.2250   -2.4610    4.7170 hc        1 MOL      0.099251
     98 H43         3.1800   -2.9030    2.9910 hc        1 MOL      0.099251
     99 H44         0.2570    0.1830    5.5910 hc        1 MOL      0.053656
    100 H45         0.9930    0.0960    4.0440 hc        1 MOL      0.053656
    101 H46        -0.7290   -0.3230    4.2240 hc        1 MOL      0.053656
    102 N10         1.7910   -2.3580    0.4360 n         1 MOL     -0.394204
    103 C32         2.6200   -2.7210   -0.6820 c3        1 MOL      0.194603
    104 C33         3.8990   -1.8310   -0.7400 c         1 MOL      0.464076
    105 O16         3.9880   -0.8500    0.0050 o         1 MOL     -0.446854
    106 C34         1.8370   -2.6760   -2.0080 c3        1 MOL     -0.396414
    107 C35         0.5930   -1.7410   -2.1070 c         1 MOL      0.746843
    108 O17         0.7360   -0.5120   -2.1830 o         1 MOL     -0.675872
    109 O18        -0.5540   -2.1820   -1.9050 o         1 MOL     -0.675872
    110 H47         1.5180   -1.3850    0.4670 hn        1 MOL      0.237194
    111 H48         3.0750   -3.7020   -0.5430 h1        1 MOL      0.041942
    112 H49         1.3590   -3.6480   -2.1740 hc        1 MOL      0.082919
    113 H50         2.4570   -2.4500   -2.8730 hc        1 MOL      0.082919
    114 N11         4.8710   -2.0810   -1.5470 n         1 MOL     -0.533434
    115 C36         6.2520   -1.6110   -1.3420 c3        1 MOL      0.264746
    116 C37         6.4860   -0.1070   -0.9960 c         1 MOL      0.428851
    117 O19         7.2810    0.1830   -0.1240 o         1 MOL     -0.516344
    118 C38         7.0230   -2.1250   -2.5900 c3        1 MOL     -0.264857
    119 C39         8.4710   -1.9620   -2.3740 ca        1 MOL      0.047527
    120 C40         9.1090   -2.9620   -1.5960 ca        1 MOL     -0.126437
    121 C41         9.1570   -0.8420   -2.8610 ca        1 MOL     -0.126437
    122 C42        10.4660   -2.7900   -1.3410 ca        1 MOL     -0.159184
    123 C43        10.5140   -0.7230   -2.6470 ca        1 MOL     -0.159184
    124 C44        11.1840   -1.6670   -1.8960 ca        1 MOL     -0.051943
    125 H51         4.6970   -2.6750   -2.3410 hn        1 MOL      0.268331
    126 H52         6.6110   -2.1410   -0.4650 h1        1 MOL      0.060912
    127 H53         6.7720   -1.5410   -3.4810 hc        1 MOL      0.094034
    128 H54         6.8480   -3.1830   -2.7920 hc        1 MOL      0.094034
    129 H55         8.6120   -3.8220   -1.1850 ha        1 MOL      0.112288
    130 H56         8.5600   -0.1510   -3.4400 ha        1 MOL      0.112288
    131 H57        11.0920   -3.4230   -0.7340 ha        1 MOL      0.119832
    132 H58        11.0610    0.1550   -2.9560 ha        1 MOL      0.119832
    133 H59        12.2570   -1.6160   -1.8380 ha        1 MOL      0.081543
    134 N12         5.9380    0.8650   -1.7050 n         1 MOL     -0.036399
    135 C45         6.2760    2.2880   -1.3860 c3        1 MOL     -0.031714
    136 C46         5.8530    2.7030   -0.0140 c         1 MOL      0.318801
    137 O20         6.4870    3.6200    0.5870 o         1 MOL     -0.513202
    138 C47         5.6420    3.1310   -2.4770 c3        1 MOL      0.010134
    139 C48         5.3190    2.0890   -3.6250 c3        1 MOL     -0.246391
    140 C49         5.0350    0.8060   -2.8170 c3        1 MOL     -0.036971
    141 H60         7.3640    2.3700   -1.2990 h1        1 MOL      0.080894
    142 H61         4.7720    3.6220   -2.0470 hc        1 MOL      0.038193
    143 H62         6.3780    3.7990   -2.9300 hc        1 MOL      0.038193
    144 H63         4.3760    2.3940   -4.0800 hc        1 MOL      0.091642
    145 H64         6.1390    1.9120   -4.3120 hc        1 MOL      0.091642
    146 H65         4.0370    0.7870   -2.3930 h1        1 MOL      0.068751
    147 H66         5.1240   -0.0640   -3.4810 h1        1 MOL      0.068751
    148 N13         4.7470    2.0490    0.5190 n         1 MOL     -0.029886
    149 C50         4.0620    2.1740    1.7390 c3        1 MOL     -0.373511
    150 C51         4.7270    1.2560    2.8210 c         1 MOL      0.591342
    151 O21         4.8150    1.6060    3.9490 o         1 MOL     -0.596782
    152 C52         2.5930    1.6970    1.5590 c3        1 MOL      0.447754
    153 C53         1.8340    2.1660    0.3780 c3        1 MOL     -0.407336
    154 C54         0.4540    1.4830    0.3600 c         1 MOL      0.957561
    155 O22         0.2810    0.3290    0.7660 o         1 MOL     -0.794151
    156 O23        -0.4900    2.0480   -0.1830 o         1 MOL     -0.794151
    157 H67         4.4000    1.4310   -0.1980 hn        1 MOL      0.140300
    158 H68         4.0550    3.2060    2.0960 h1        1 MOL      0.149993
    159 H69         2.0210    2.0990    2.3960 hc        1 MOL     -0.077280
    160 H70         2.5990    0.6110    1.5580 hc        1 MOL     -0.077280
    161 H71         2.2760    1.8760   -0.5670 hc        1 MOL      0.093170
    162 H72         1.7010    3.2420    0.4260 hc        1 MOL      0.093170
    163 N14         5.4770    0.2310    2.4740 n         1 MOL     -0.046195
    164 C55         6.4690   -0.5480    3.3160 c3        1 MOL     -0.292707
    165 H73         6.4380   -1.5990    3.0320 h1        1 MOL      0.104698
    166 H74         7.4730   -0.1560    3.1500 h1        1 MOL      0.104698
    167 H75         6.2090   -0.4490    4.3700 h1        1 MOL      0.104698
    168 H76         5.5150   -0.0450    1.5110 hn        1 MOL      0.047568
    169 Ca1        -1.7370   -0.2730   -0.6040 Ca        1 MOL      1.741471
@<TRIPOS>BOND
     1    1    2 1   
     2    1    4 1   
     3    1    5 1   
     4    1    6 1   
     5    2    3 2   
     6    2    7 1   
     7    7    8 1   
     8    7   15 1   
     9    8    9 1   
    10    8   11 1   
    11    8   16 1   
    12    9   10 2   
    13    9   19 1   
    14   11   12 1   
    15   11   17 1   
    16   11   18 1   
    17   12   13 1   
    18   12   14 1   
    19   19   20 1   
    20   19   24 1   
    21   20   21 1   
    22   20   23 1   
    23   20   25 1   
    24   21   22 2   
    25   21   29 1   
    26   23   26 1   
    27   23   27 1   
    28   23   28 1   
    29   29   30 1   
    30   29   37 1   
    31   30   31 1   
    32   30   33 1   
    33   30   38 1   
    34   31   32 2   
    35   31   41 1   
    36   33   34 1   
    37   33   39 1   
    38   33   40 1   
    39   34   35 1   
    40   34   36 1   
    41   41   42 1   
    42   41   45 1   
    43   42   43 1   
    44   42   46 1   
    45   42   47 1   
    46   43   44 2   
    47   43   48 1   
    48   48   49 1   
    49   48   56 1   
    50   49   50 1   
    51   49   52 1   
    52   49   57 1   
    53   50   51 2   
    54   50   62 1   
    55   52   53 1   
    56   52   58 1   
    57   52   59 1   
    58   53   54 1   
    59   53   55 2   
    60   54   60 1   
    61   54   61 1   
    62   62   63 1   
    63   62   66 1   
    64   63   64 1   
    65   63   67 1   
    66   63   68 1   
    67   64   65 2   
    68   64   69 1   
    69   69   70 1   
    70   69   76 1   
    71   70   71 1   
    72   70   73 1   
    73   70   77 1   
    74   71   72 2   
    75   71   83 1   
    76   73   74 1   
    77   73   75 1   
    78   73   78 1   
    79   74   80 1   
    80   74   81 1   
    81   74   82 1   
    82   75   79 1   
    83   83   84 1   
    84   83   91 1   
    85   84   85 1   
    86   84   87 1   
    87   84   92 1   
    88   85   86 2   
    89   85  102 1   
    90   87   88 1   
    91   87   89 1   
    92   87   93 1   
    93   88   90 1   
    94   88   94 1   
    95   88   95 1   
    96   89   96 1   
    97   89   97 1   
    98   89   98 1   
    99   90   99 1   
   100   90  100 1   
   101   90  101 1   
   102  102  103 1   
   103  102  110 1   
   104  103  104 1   
   105  103  106 1   
   106  103  111 1   
   107  104  105 2   
   108  104  114 1   
   109  106  107 1   
   110  106  112 1   
   111  106  113 1   
   112  107  108 1   
   113  107  109 1   
   114  114  115 1   
   115  114  125 1   
   116  115  116 1   
   117  115  118 1   
   118  115  126 1   
   119  116  117 2   
   120  116  134 1   
   121  118  119 1   
   122  118  127 1   
   123  118  128 1   
   124  119  120 ar  
   125  119  121 ar  
   126  120  122 ar  
   127  120  129 1   
   128  121  123 ar  
   129  121  130 1   
   130  122  124 ar  
   131  122  131 1   
   132  123  124 ar  
   133  123  132 1   
   134  124  133 1   
   135  134  135 1   
   136  134  140 1   
   137  135  136 1   
   138  135  138 1   
   139  135  141 1   
   140  136  137 2   
   141  136  148 1   
   142  138  139 1   
   143  138  142 1   
   144  138  143 1   
   145  139  140 1   
   146  139  144 1   
   147  139  145 1   
   148  140  146 1   
   149  140  147 1   
   150  148  149 1   
   151  148  157 1   
   152  149  150 1   
   153  149  152 1   
   154  149  158 1   
   155  150  151 2   
   156  150  163 1   
   157  152  153 1   
   158  152  159 1   
   159  152  160 1   
   160  153  154 1   
   161  153  161 1   
   162  153  162 1   
   163  154  155 1   
   164  154  156 1   
   165  163  164 1   
   166  163  168 1   
   167  164  165 1   
   168  164  166 1   
   169  164  167 1   
@<TRIPOS>SUBSTRUCTURE
     1 MOL         1 TEMP              0 ****  ****    0 ROOT
