@<TRIPOS>MOLECULE
MOL
  186   183     1     0     0
SMALL
resp


@<TRIPOS>ATOM
      1 C1          0.6490   -2.6460    6.2210 c3        1 MOL     -0.246912
      2 C2          0.9440   -2.5180    4.7320 c         1 MOL      0.833465
      3 O1          0.0600   -2.8120    3.9440 o         1 MOL     -0.627176
      4 H1          1.1130   -3.5550    6.6060 hc        1 MOL      0.052265
      5 H2          1.0520   -1.7810    6.7490 hc        1 MOL      0.052265
      6 H3         -0.4290   -2.6960    6.3760 hc        1 MOL      0.052265
      7 N1          2.1490   -2.0230    4.3120 n         1 MOL     -0.775993
      8 C3          2.6160   -1.8980    2.9110 c3        1 MOL      0.381710
      9 C4          2.9410   -3.2670    2.3410 c         1 MOL      0.474715
     10 O2          3.7240   -4.0190    2.9640 o         1 MOL     -0.599952
     11 C5          3.9180   -1.0700    2.9730 c3        1 MOL     -0.496878
     12 C6          4.5730   -0.8010    1.6610 c         1 MOL      0.909691
     13 O3          3.9910   -1.2520    0.6420 o         1 MOL     -0.690078
     14 O4          5.5790   -0.0560    1.6220 o         1 MOL     -0.690078
     15 H4          2.8590   -1.8020    5.0030 hn        1 MOL      0.344053
     16 H5          1.8760   -1.4300    2.2690 h1        1 MOL     -0.062289
     17 H6          4.6780   -1.6300    3.5090 hc        1 MOL      0.102932
     18 H7          3.6080   -0.1540    3.4880 hc        1 MOL      0.102932
     19 N2          2.2090   -3.6180    1.3110 n         1 MOL     -0.065022
     20 C7          2.2390   -4.9140    0.6730 c3        1 MOL     -0.475652
     21 C8          3.3940   -5.1610   -0.2830 c         1 MOL      0.633692
     22 O5          3.6050   -6.2980   -0.5960 o         1 MOL     -0.578952
     23 C9          0.8930   -5.5590    0.2430 c3        1 MOL      0.333047
     24 C10         0.6180   -5.1590   -1.2380 c3        1 MOL     -0.162264
     25 C11        -0.1850   -5.1440    1.2170 c3        1 MOL     -0.252630
     26 C12        -0.8050   -5.4280   -1.7200 c3        1 MOL     -0.143209
     27 H8          1.6390   -2.8820    0.9390 hn        1 MOL      0.282502
     28 H9          2.4670   -5.6400    1.4640 h1        1 MOL      0.144048
     29 H10         0.9740   -6.6460    0.3580 hc        1 MOL     -0.030789
     30 H11         1.2700   -5.8160   -1.8150 hc        1 MOL      0.070884
     31 H12         0.7970   -4.1030   -1.4250 hc        1 MOL      0.070884
     32 H13        -1.1130   -5.6530    0.9640 hc        1 MOL      0.064666
     33 H14         0.1190   -5.5660    2.1770 hc        1 MOL      0.064666
     34 H15        -0.2700   -4.0620    1.2680 hc        1 MOL      0.064666
     35 H16        -1.4200   -4.7770   -1.1030 hc        1 MOL      0.035566
     36 H17        -0.8270   -5.2470   -2.7960 hc        1 MOL      0.035566
     37 H18        -1.1120   -6.4520   -1.4980 hc        1 MOL      0.035566
     38 N3          4.1170   -4.1280   -0.7300 n         1 MOL     -0.373995
     39 C13         5.2600   -4.1700   -1.6610 c3        1 MOL     -0.066426
     40 C14         6.4710   -3.3290   -1.3080 c         1 MOL      0.438024
     41 O6          7.5280   -3.4500   -1.9450 o         1 MOL     -0.556806
     42 C15         4.8130   -3.8460   -3.1780 c3        1 MOL     -0.053464
     43 C16         3.8410   -2.7170   -3.2710 c         1 MOL      0.717033
     44 O7          3.0420   -2.6870   -4.2610 o         1 MOL     -0.714051
     45 O8          3.8510   -1.7730   -2.4170 o         1 MOL     -0.714051
     46 H19         3.8190   -3.2520   -0.3230 hn        1 MOL      0.165590
     47 H20         5.7370   -5.1380   -1.7830 h1        1 MOL      0.103630
     48 H21         4.3640   -4.7930   -3.4840 hc        1 MOL      0.026534
     49 H22         5.6180   -3.6900   -3.9050 hc        1 MOL      0.026534
     50 N4          6.4640   -2.5150   -0.2500 n         1 MOL     -0.020679
     51 C17         7.6270   -1.8470    0.2430 c3        1 MOL     -0.312066
     52 C18         7.9740   -0.5600   -0.5670 c         1 MOL      0.697612
     53 O9          9.0720   -0.5000   -1.1290 o         1 MOL     -0.623182
     54 H23         5.6050   -2.5220    0.2890 hn        1 MOL      0.134008
     55 H24         8.4720   -2.5260    0.2300 h1        1 MOL      0.091902
     56 H25         7.3020   -1.6410    1.2670 h1        1 MOL      0.091902
     57 N5          7.2160    0.5010   -0.6270 n         1 MOL     -0.290903
     58 C19         7.4920    1.7640   -1.3200 c3        1 MOL     -0.055561
     59 C20         7.4840    2.9550   -0.3630 c         1 MOL      0.473205
     60 O10         7.7160    4.0640   -0.7760 o         1 MOL     -0.542230
     61 C21         6.5510    2.0010   -2.4970 c3        1 MOL     -0.092438
     62 C22         5.0800    1.8520   -2.2180 c         1 MOL      0.648880
     63 O11         4.2880    1.6560   -3.1990 o         1 MOL     -0.736650
     64 O12         4.6800    1.7820   -1.0410 o         1 MOL     -0.736650
     65 H26         6.3220    0.3870   -0.1660 hn        1 MOL      0.062741
     66 H27         8.4950    1.6770   -1.7460 h1        1 MOL      0.089736
     67 H28         6.7230    1.1200   -3.1070 hc        1 MOL      0.057138
     68 H29         6.7640    2.8370   -3.1660 hc        1 MOL      0.057138
     69 N6          7.1530    2.7110    0.9160 n         1 MOL     -0.293913
     70 C23         7.0480    3.7050    1.9770 c3        1 MOL     -0.223269
     71 C24         5.6420    4.3840    1.8850 c         1 MOL      0.624318
     72 O13         5.4150    5.3620    2.5230 o         1 MOL     -0.605553
     73 H30         6.7790    1.7980    1.1450 hn        1 MOL      0.234583
     74 H31         7.8560    4.4310    1.8880 h1        1 MOL      0.116322
     75 H32         7.1010    3.2290    2.9590 h1        1 MOL      0.116322
     76 N7          4.6410    3.8130    1.1800 n         1 MOL     -0.333403
     77 C25         3.2250    4.2580    1.1850 c3        1 MOL     -0.028341
     78 C26         2.1500    3.1010    1.3710 c         1 MOL      0.541932
     79 O14         2.3010    2.1140    0.6490 o         1 MOL     -0.619567
     80 C27         2.9440    5.3340    0.1380 c3        1 MOL     -0.020144
     81 C28         3.1040    4.9250   -1.4050 c3        1 MOL     -0.165092
     82 C29         2.4470    6.0000   -2.3550 c         1 MOL      0.645583
     83 N8          2.6680    5.8800   -3.6750 n         1 MOL     -0.802887
     84 O15         1.8160    6.9310   -1.9220 o         1 MOL     -0.560675
     85 H33         4.7810    3.0210    0.5610 hn        1 MOL      0.280325
     86 H34         3.0450    4.7540    2.1290 h1        1 MOL      0.034336
     87 H35         3.7320    6.0810    0.2030 hc        1 MOL      0.024001
     88 H36         2.0120    5.8570    0.3590 hc        1 MOL      0.024001
     89 H37         2.6700    3.9430   -1.5850 hc        1 MOL      0.107428
     90 H38         4.1940    4.8770   -1.4300 hc        1 MOL      0.107428
     91 H39         3.2160    5.1380   -4.0810 hn        1 MOL      0.351387
     92 H40         2.3710    6.6130   -4.3110 hn        1 MOL      0.351387
     93 N9          1.0060    3.2950    2.0650 n         1 MOL     -0.395899
     94 C30        -0.0920    2.3910    2.2300 c3        1 MOL     -0.068061
     95 C31        -1.2390    2.9900    1.4240 c         1 MOL      0.434623
     96 O16        -1.7740    4.0570    1.7620 o         1 MOL     -0.554845
     97 C32        -0.3870    2.1680    3.7140 c3        1 MOL      0.245361
     98 C33        -1.6840    1.3670    3.9990 c3        1 MOL     -0.346299
     99 C34         0.7650    1.3710    4.4080 c3        1 MOL     -0.346299
    100 H41         0.9340    4.1590    2.5900 hn        1 MOL      0.279937
    101 H42         0.1200    1.3930    1.8560 h1        1 MOL      0.224973
    102 H43        -0.4000    3.1560    4.1830 hc        1 MOL     -0.015300
    103 H44        -2.5240    1.6510    3.3590 hc        1 MOL      0.073201
    104 H45        -1.4840    0.3020    3.9410 hc        1 MOL      0.073201
    105 H46        -2.0280    1.7420    4.9650 hc        1 MOL      0.073201
    106 H47         0.6300    1.3860    5.4840 hc        1 MOL      0.073201
    107 H48         0.8490    0.3440    4.0420 hc        1 MOL      0.073201
    108 H49         1.7570    1.7410    4.1570 hc        1 MOL      0.073201
    109 N10        -1.6420    2.3020    0.3310 n         1 MOL     -0.226511
    110 C35        -2.8410    2.5840   -0.5450 c3        1 MOL     -0.039488
    111 C36        -4.1350    2.2050    0.1920 c         1 MOL      0.453470
    112 O17        -4.0990    1.5300    1.1780 o         1 MOL     -0.406028
    113 C37        -2.6920    1.8380   -1.8800 c3        1 MOL     -0.414072
    114 C38        -3.8050    2.1720   -2.8170 c         1 MOL      0.786559
    115 N11        -3.7190    3.2920   -3.4480 n         1 MOL     -0.797681
    116 O18        -4.6570    1.3860   -3.1120 o         1 MOL     -0.587606
    117 H50        -0.9710    1.6130    0.0010 hn        1 MOL      0.311680
    118 H51        -2.9710    3.6570   -0.6600 h1        1 MOL      0.050721
    119 H52        -2.6660    0.7860   -1.5920 hc        1 MOL      0.129399
    120 H53        -1.7430    2.0490   -2.3840 hc        1 MOL      0.129399
    121 H54        -2.9110    3.8850   -3.2700 hn        1 MOL      0.361571
    122 H55        -4.4000    3.5540   -4.1340 hn        1 MOL      0.361571
    123 N12        -5.2290    2.6290   -0.2910 n         1 MOL     -0.321963
    124 C39        -6.5370    2.2140    0.1810 c3        1 MOL      0.091476
    125 C40        -6.7670    0.7300    0.0490 c         1 MOL      0.634906
    126 O19        -7.2360    0.1130    0.9730 o         1 MOL     -0.515973
    127 C41        -7.6410    3.0860   -0.4460 c3        1 MOL     -0.119129
    128 C42        -9.0240    2.5580   -0.0980 ca        1 MOL     -0.117169
    129 C43        -9.6530    2.8090    1.1340 ca        1 MOL     -0.044805
    130 C44        -9.5900    1.6160   -0.9740 ca        1 MOL     -0.044805
    131 C45       -10.8560    2.1990    1.3680 ca        1 MOL     -0.402499
    132 C46       -10.8180    0.9390   -0.7140 ca        1 MOL     -0.402499
    133 C47       -11.4310    1.1990    0.5050 ca        1 MOL      0.517881
    134 O20       -12.6160    0.5330    0.8330 oh        1 MOL     -0.588410
    135 H56        -5.1960    3.4070   -0.9340 hn        1 MOL      0.194860
    136 H57        -6.5190    2.3710    1.2710 h1        1 MOL      0.037895
    137 H58        -7.5130    3.0270   -1.5270 hc        1 MOL      0.055485
    138 H59        -7.4930    4.1220   -0.1470 hc        1 MOL      0.055485
    139 H60        -9.1890    3.4930    1.8300 ha        1 MOL      0.117695
    140 H61        -9.1170    1.3910   -1.9270 ha        1 MOL      0.117695
    141 H62       -11.2590    2.4150    2.3400 ha        1 MOL      0.182860
    142 H63       -11.1300    0.2060   -1.4420 ha        1 MOL      0.182860
    143 H64       -12.8470   -0.0300    0.0930 ho        1 MOL      0.402634
    144 N13        -6.3510    0.1340   -1.0520 n         1 MOL     -0.223112
    145 C48        -6.3430   -1.3140   -1.3010 c3        1 MOL     -0.137732
    146 C49        -5.4810   -2.0010   -0.2180 c         1 MOL      0.206045
    147 O21        -5.8030   -3.0880    0.2960 o         1 MOL     -0.441539
    148 C50        -5.8220   -1.5810   -2.7420 c3        1 MOL      0.155543
    149 C51        -6.0040   -3.0310   -3.2400 c3        1 MOL     -0.229143
    150 C52        -7.3930   -3.3290   -3.7960 c         1 MOL      0.767111
    151 O22        -8.2330   -3.6210   -2.9510 o         1 MOL     -0.761603
    152 O23        -7.5790   -3.3120   -5.0330 o         1 MOL     -0.761603
    153 H65        -6.0760    0.6910   -1.8410 hn        1 MOL      0.160872
    154 H66        -7.3740   -1.6810   -1.2860 h1        1 MOL      0.146877
    155 H67        -4.7270   -1.4870   -2.7820 hc        1 MOL     -0.018303
    156 H68        -6.3040   -0.9260   -3.4550 hc        1 MOL     -0.018303
    157 H69        -5.7170   -3.6930   -2.4230 hc        1 MOL      0.021469
    158 H70        -5.2630   -3.2470   -4.0110 hc        1 MOL      0.021469
    159 N14        -4.3050   -1.4520    0.1440 n         1 MOL      0.143258
    160 C53        -3.4430   -1.9740    1.2210 c3        1 MOL     -0.211661
    161 C54        -4.2120   -1.9300    2.5650 c         1 MOL      0.447114
    162 O24        -4.1970   -2.8420    3.3460 o         1 MOL     -0.558153
    163 C55        -2.0870   -1.2760    1.1440 c3        1 MOL      0.093195
    164 C56        -1.3240   -1.5920   -0.2040 c3        1 MOL     -0.293985
    165 C57         0.0300   -0.8840   -0.2090 c         1 MOL      0.842611
    166 O25         1.0510   -1.3810    0.1470 o         1 MOL     -0.757455
    167 O26         0.1240    0.3220   -0.5770 o         1 MOL     -0.757455
    168 H71        -4.0240   -0.7100   -0.4750 hn        1 MOL      0.076894
    169 H72        -3.1000   -2.9890    1.0420 h1        1 MOL      0.121297
    170 H73        -1.4010   -1.6650    1.8940 hc        1 MOL      0.033558
    171 H74        -2.1310   -0.1880    1.2400 hc        1 MOL      0.033558
    172 H75        -1.9270   -1.2430   -1.0440 hc        1 MOL      0.046975
    173 H76        -1.0850   -2.6480   -0.2770 hc        1 MOL      0.046975
    174 N15        -5.1080   -0.9660    2.6770 n         1 MOL      0.109060
    175 C58        -5.9610   -0.6870    3.8090 c3        1 MOL     -0.353194
    176 H77        -7.0050   -0.7520    3.5030 h1        1 MOL      0.109323
    177 H78        -5.7690   -1.4140    4.5980 h1        1 MOL      0.109323
    178 H79        -5.7540    0.3160    4.1820 h1        1 MOL      0.109323
    179 H80        -5.1140   -0.4400    1.8210 hn        1 MOL     -0.077025
    180 Ca1         2.6920    0.1600   -1.1690 Ca        1 MOL      1.737995
    181 O27         1.3750   -0.7160   -3.3650 oh        1 MOL     -0.874194
    182 H81         1.0780   -0.4440   -4.2300 ho        1 MOL      0.405205
    183 H82         1.9480   -1.4620   -3.5380 ho        1 MOL      0.405205
    184 O28         1.0260    1.9780   -2.4930 oh        1 MOL     -0.874194
    185 H83         1.1680    1.6130   -3.3690 ho        1 MOL      0.405205
    186 H84         0.3620    1.4030   -2.1010 ho        1 MOL      0.405205
@<TRIPOS>BOND
     1    1    2 1   
     2    1    4 1   
     3    1    5 1   
     4    1    6 1   
     5    2    3 2   
     6    2    7 1   
     7    7    8 1   
     8    7   15 1   
     9    8    9 1   
    10    8   11 1   
    11    8   16 1   
    12    9   10 2   
    13    9   19 1   
    14   11   12 1   
    15   11   17 1   
    16   11   18 1   
    17   12   13 1   
    18   12   14 1   
    19   19   20 1   
    20   19   27 1   
    21   20   21 1   
    22   20   23 1   
    23   20   28 1   
    24   21   22 2   
    25   21   38 1   
    26   23   24 1   
    27   23   25 1   
    28   23   29 1   
    29   24   26 1   
    30   24   30 1   
    31   24   31 1   
    32   25   32 1   
    33   25   33 1   
    34   25   34 1   
    35   26   35 1   
    36   26   36 1   
    37   26   37 1   
    38   38   39 1   
    39   38   46 1   
    40   39   40 1   
    41   39   42 1   
    42   39   47 1   
    43   40   41 2   
    44   40   50 1   
    45   42   43 1   
    46   42   48 1   
    47   42   49 1   
    48   43   44 1   
    49   43   45 1   
    50   50   51 1   
    51   50   54 1   
    52   51   52 1   
    53   51   55 1   
    54   51   56 1   
    55   52   53 2   
    56   52   57 1   
    57   57   58 1   
    58   57   65 1   
    59   58   59 1   
    60   58   61 1   
    61   58   66 1   
    62   59   60 2   
    63   59   69 1   
    64   61   62 1   
    65   61   67 1   
    66   61   68 1   
    67   62   63 1   
    68   62   64 1   
    69   69   70 1   
    70   69   73 1   
    71   70   71 1   
    72   70   74 1   
    73   70   75 1   
    74   71   72 2   
    75   71   76 1   
    76   76   77 1   
    77   76   85 1   
    78   77   78 1   
    79   77   80 1   
    80   77   86 1   
    81   78   79 2   
    82   78   93 1   
    83   80   81 1   
    84   80   87 1   
    85   80   88 1   
    86   81   82 1   
    87   81   89 1   
    88   81   90 1   
    89   82   83 1   
    90   82   84 2   
    91   83   91 1   
    92   83   92 1   
    93   93   94 1   
    94   93  100 1   
    95   94   95 1   
    96   94   97 1   
    97   94  101 1   
    98   95   96 2   
    99   95  109 1   
   100   97   98 1   
   101   97   99 1   
   102   97  102 1   
   103   98  103 1   
   104   98  104 1   
   105   98  105 1   
   106   99  106 1   
   107   99  107 1   
   108   99  108 1   
   109  109  110 1   
   110  109  117 1   
   111  110  111 1   
   112  110  113 1   
   113  110  118 1   
   114  111  112 2   
   115  111  123 1   
   116  113  114 1   
   117  113  119 1   
   118  113  120 1   
   119  114  115 1   
   120  114  116 2   
   121  115  121 1   
   122  115  122 1   
   123  123  124 1   
   124  123  135 1   
   125  124  125 1   
   126  124  127 1   
   127  124  136 1   
   128  125  126 2   
   129  125  144 1   
   130  127  128 1   
   131  127  137 1   
   132  127  138 1   
   133  128  129 ar  
   134  128  130 ar  
   135  129  131 ar  
   136  129  139 1   
   137  130  132 ar  
   138  130  140 1   
   139  131  133 ar  
   140  131  141 1   
   141  132  133 ar  
   142  132  142 1   
   143  133  134 1   
   144  134  143 1   
   145  144  145 1   
   146  144  153 1   
   147  145  146 1   
   148  145  148 1   
   149  145  154 1   
   150  146  147 2   
   151  146  159 1   
   152  148  149 1   
   153  148  155 1   
   154  148  156 1   
   155  149  150 1   
   156  149  157 1   
   157  149  158 1   
   158  150  151 1   
   159  150  152 1   
   160  159  160 1   
   161  159  168 1   
   162  160  161 1   
   163  160  163 1   
   164  160  169 1   
   165  161  162 2   
   166  161  174 1   
   167  163  164 1   
   168  163  170 1   
   169  163  171 1   
   170  164  165 1   
   171  164  172 1   
   172  164  173 1   
   173  165  166 1   
   174  165  167 1   
   175  174  175 1   
   176  174  179 1   
   177  175  176 1   
   178  175  177 1   
   179  175  178 1   
   180  181  182 1   
   181  181  183 1   
   182  184  185 1   
   183  184  186 1   
@<TRIPOS>SUBSTRUCTURE
     1 MOL         1 TEMP              0 ****  ****    0 ROOT
