@<TRIPOS>MOLECULE
MOL
  175   173     1     0     0
SMALL
resp


@<TRIPOS>ATOM
      1 C1         -0.5140   -4.0300    5.6340 c3        1 MOL     -0.403461
      2 C2         -0.0580   -3.9370    4.1240 c         1 MOL      0.701715
      3 O1         -0.8540   -3.9850    3.2180 o         1 MOL     -0.523125
      4 H1         -0.1200   -3.1760    6.1850 hc        1 MOL      0.099517
      5 H2         -1.6020   -4.0250    5.6860 hc        1 MOL      0.099517
      6 H3         -0.1330   -4.9520    6.0730 hc        1 MOL      0.099517
      7 N1          1.2490   -4.0640    3.8540 n         1 MOL     -0.668597
      8 C3          1.8770   -3.6530    2.5580 c3        1 MOL      0.216993
      9 C4          2.0540   -4.8830    1.6590 c         1 MOL      0.640752
     10 O2          2.2150   -6.0730    2.0270 o         1 MOL     -0.578904
     11 C5          3.1700   -3.0500    2.9850 c3        1 MOL     -0.332317
     12 C6          3.9530   -2.5330    1.7650 c         1 MOL      0.617709
     13 O3          5.1820   -2.6720    1.7120 o         1 MOL     -0.624492
     14 O4          3.3580   -2.0740    0.8220 o         1 MOL     -0.624492
     15 H4          1.8210   -4.2470    4.6700 hn        1 MOL      0.317357
     16 H5          1.3400   -2.8720    2.0360 h1        1 MOL      0.063786
     17 H6          3.8510   -3.7850    3.4390 hc        1 MOL      0.067981
     18 H7          2.8870   -2.2160    3.6280 hc        1 MOL      0.067981
     19 N2          2.1050   -4.5730    0.3220 n         1 MOL     -0.539513
     20 C7          2.3220   -5.5710   -0.6760 c3        1 MOL      0.415923
     21 C8          3.6010   -5.2640   -1.5350 c         1 MOL      0.379556
     22 O5          4.0720   -6.1870   -2.2730 o         1 MOL     -0.549053
     23 C9          1.1460   -5.6720   -1.5400 c3        1 MOL     -0.423072
     24 H8          2.0310   -3.6180    0.0040 hn        1 MOL      0.268721
     25 H9          2.4060   -6.5350   -0.1710 h1        1 MOL     -0.007848
     26 H10         1.4040   -6.4520   -2.2700 hc        1 MOL      0.102864
     27 H11         0.3110   -5.9130   -0.8900 hc        1 MOL      0.102864
     28 H12         0.9610   -4.8190   -2.1980 hc        1 MOL      0.102864
     29 N3          4.1740   -4.0200   -1.3980 n         1 MOL     -0.470899
     30 C10         4.9740   -3.5140   -2.5600 c3        1 MOL      0.244171
     31 C11         6.1260   -2.5530   -2.2050 c         1 MOL      0.231219
     32 O6          6.9310   -2.1840   -3.0510 o         1 MOL     -0.539837
     33 C12         4.1530   -2.7200   -3.5670 c3        1 MOL     -0.159102
     34 C13         3.3200   -1.5350   -3.0440 c         1 MOL      0.681439
     35 O7          3.4780   -1.0360   -1.8980 o         1 MOL     -0.678053
     36 O8          2.4190   -1.1460   -3.8110 o         1 MOL     -0.678053
     37 H13         3.8010   -3.2830   -0.8050 hn        1 MOL      0.340738
     38 H14         5.3920   -4.3560   -3.0990 h1        1 MOL      0.059643
     39 H15         3.5360   -3.4280   -4.1100 hc        1 MOL      0.031445
     40 H16         4.8190   -2.2160   -4.2600 hc        1 MOL      0.031445
     41 N4          6.3400   -2.1970   -0.9630 n         1 MOL     -0.050561
     42 C14         7.2880   -1.2750   -0.3350 c3        1 MOL     -0.074848
     43 C15         7.3650    0.0980   -0.9180 c         1 MOL      0.569517
     44 O9          8.4130    0.7150   -0.7660 o         1 MOL     -0.623740
     45 H17         5.6380   -2.4740   -0.2900 hn        1 MOL      0.047384
     46 H18         8.2740   -1.7210   -0.4860 h1        1 MOL      0.055388
     47 H19         7.0930   -1.1810    0.7310 h1        1 MOL      0.055388
     48 N5          6.3030    0.5610   -1.5390 n         1 MOL     -0.308893
     49 C16         6.3160    1.8390   -2.2160 c3        1 MOL      0.034705
     50 C17         6.3020    3.0240   -1.2300 c         1 MOL      0.461839
     51 O10         6.3470    4.1700   -1.6780 o         1 MOL     -0.562517
     52 C18         5.1020    1.8150   -3.2010 c3        1 MOL     -0.328807
     53 C19         3.7550    2.0840   -2.5340 c         1 MOL      0.700320
     54 N6          2.7170    2.2880   -3.3400 n         1 MOL     -0.719984
     55 O11         3.5020    1.9590   -1.3090 o         1 MOL     -0.648092
     56 H20         5.4510    0.0300   -1.6350 hn        1 MOL      0.248826
     57 H21         7.2040    1.9770   -2.8300 h1        1 MOL      0.101538
     58 H22         5.1370    0.8550   -3.7210 hc        1 MOL      0.112199
     59 H23         5.2640    2.5320   -4.0090 hc        1 MOL      0.112199
     60 H24         2.8480    2.2340   -4.3380 hn        1 MOL      0.358563
     61 H25         1.8560    2.5840   -2.9170 hn        1 MOL      0.358563
     62 N7          6.2300    2.8630    0.0910 n         1 MOL     -0.256946
     63 C20         6.4090    3.9740    1.0620 c3        1 MOL     -0.098714
     64 C21         5.0950    4.6200    1.5430 c         1 MOL      0.431749
     65 O12         5.1240    5.4010    2.5340 o         1 MOL     -0.565559
     66 H26         6.3580    1.9210    0.4420 hn        1 MOL      0.227212
     67 H27         7.0450    4.6930    0.5440 h1        1 MOL      0.103510
     68 H28         7.0990    3.7450    1.8830 h1        1 MOL      0.103510
     69 N8          3.9160    4.4230    0.9110 n         1 MOL     -0.262097
     70 C22         2.5470    4.8180    1.4380 c3        1 MOL      0.004296
     71 C23         1.5270    3.6980    1.4000 c         1 MOL      0.528369
     72 O13         1.6900    2.8420    0.5450 o         1 MOL     -0.594608
     73 C24         2.0150    6.0190    0.6710 c3        1 MOL      0.477038
     74 C25         3.0060    7.2230    0.6800 c3        1 MOL     -0.417144
     75 O14         1.6610    5.8040   -0.7100 oh        1 MOL     -0.622892
     76 H29         4.0170    3.8580    0.0790 hn        1 MOL      0.207952
     77 H30         2.6040    5.1380    2.4740 h1        1 MOL      0.046610
     78 H31         1.1270    6.3740    1.1810 h1        1 MOL     -0.053242
     79 H32         1.5610    4.8590   -0.8020 ho        1 MOL      0.399795
     80 H33         2.4790    8.0930    0.2940 hc        1 MOL      0.105981
     81 H34         3.4100    7.4570    1.6610 hc        1 MOL      0.105981
     82 H35         3.7900    7.0600   -0.0550 hc        1 MOL      0.105981
     83 N9          0.4120    3.7310    2.1600 n         1 MOL     -0.442756
     84 C26        -0.7290    2.8190    2.0660 c3        1 MOL     -0.013869
     85 C27        -1.5180    3.0590    0.7990 c         1 MOL      0.546063
     86 O15        -2.0450    4.1390    0.5550 o         1 MOL     -0.577789
     87 C28        -1.5040    2.7950    3.4120 c3        1 MOL     -0.010224
     88 C29        -0.7350    1.9210    4.4190 c3        1 MOL      0.066108
     89 C30        -2.9700    2.3070    3.3600 c3        1 MOL     -0.049954
     90 C31        -1.4310    1.9990    5.8220 c3        1 MOL     -0.240540
     91 H36         0.2270    4.6040    2.6410 hn        1 MOL      0.253819
     92 H37        -0.2670    1.8330    2.0400 h1        1 MOL      0.002903
     93 H38        -1.5610    3.7780    3.8840 hc        1 MOL      0.052820
     94 H39         0.2900    2.2550    4.5490 hc        1 MOL      0.008812
     95 H40        -0.8520    0.8860    4.1110 hc        1 MOL      0.008812
     96 H41        -3.4790    2.5350    4.2850 hc        1 MOL      0.019603
     97 H42        -3.6310    2.8710    2.7010 hc        1 MOL      0.019603
     98 H43        -3.0640    1.2410    3.1200 hc        1 MOL      0.019603
     99 H44        -2.3080    1.3680    5.6680 hc        1 MOL      0.051430
    100 H45        -0.8030    1.5630    6.5970 hc        1 MOL      0.051430
    101 H46        -1.8240    2.9950    6.0170 hc        1 MOL      0.051430
    102 N10        -1.7410    2.0200   -0.0270 n         1 MOL     -0.291396
    103 C32        -2.6110    1.9390   -1.1610 c3        1 MOL     -0.005795
    104 C33        -4.1040    1.6710   -0.7770 c         1 MOL      0.578188
    105 O16        -4.3330    1.1320    0.2940 o         1 MOL     -0.412721
    106 C34        -1.9810    0.9740   -2.1480 c3        1 MOL     -0.378097
    107 C35        -0.4960    1.3780   -2.3830 c         1 MOL      0.832766
    108 O17         0.4230    0.8180   -1.7560 o         1 MOL     -0.687010
    109 O18        -0.2770    2.2220   -3.2790 o         1 MOL     -0.687010
    110 H47        -1.0820    1.2990    0.2480 hn        1 MOL      0.221653
    111 H48        -2.7250    2.8980   -1.6670 h1        1 MOL      0.071219
    112 H49        -2.4190    1.1090   -3.1260 hc        1 MOL      0.102500
    113 H50        -2.1490   -0.0520   -1.8140 hc        1 MOL      0.102500
    114 N11        -5.0870    1.8830   -1.7230 n         1 MOL     -0.723614
    115 C36        -6.4810    1.5580   -1.3960 c3        1 MOL      0.411029
    116 C37        -6.7890    0.0240   -1.1220 c         1 MOL      0.409947
    117 O19        -7.4340   -0.2750   -0.1280 o         1 MOL     -0.512797
    118 C38        -7.4020    2.1170   -2.5340 c3        1 MOL     -0.322430
    119 C39        -8.8560    1.7020   -2.3530 ca        1 MOL      0.024277
    120 C40        -9.5700    2.0090   -1.1900 ca        1 MOL     -0.051288
    121 C41        -9.4890    0.8450   -3.2510 ca        1 MOL     -0.051288
    122 C42       -10.9000    1.6900   -1.0440 ca        1 MOL     -0.206391
    123 C43       -10.8350    0.4430   -3.0920 ca        1 MOL     -0.206391
    124 C44       -11.5480    0.8800   -1.9950 ca        1 MOL     -0.037118
    125 H51        -4.8580    2.2970   -2.6190 hn        1 MOL      0.363446
    126 H52        -6.6730    1.9620   -0.3980 h1        1 MOL      0.028151
    127 H53        -7.0180    1.8150   -3.5070 hc        1 MOL      0.106041
    128 H54        -7.4790    3.2010   -2.4860 hc        1 MOL      0.106041
    129 H55        -9.1470    2.6800   -0.4560 ha        1 MOL      0.084159
    130 H56        -9.0180    0.5830   -4.1850 ha        1 MOL      0.084159
    131 H57       -11.4000    1.9920   -0.1260 ha        1 MOL      0.127771
    132 H58       -11.4140   -0.2130   -3.7320 ha        1 MOL      0.127771
    133 H59       -12.5630    0.5120   -1.9100 ha        1 MOL      0.088652
    134 N12        -6.1930   -0.9630   -1.7900 n         1 MOL     -0.188138
    135 C45        -6.2770   -2.4020   -1.4360 c3        1 MOL      0.060920
    136 C46        -5.7800   -2.7230    0.0100 c         1 MOL      0.261230
    137 O20        -6.1880   -3.6700    0.6660 o         1 MOL     -0.522254
    138 C47        -5.5450   -3.1460   -2.5970 c3        1 MOL      0.049511
    139 C48        -5.4400   -2.1040   -3.6560 c3        1 MOL      0.027844
    140 C49        -5.4340   -0.7580   -2.9610 c3        1 MOL     -0.116867
    141 H60        -7.2620   -2.8530   -1.4730 h1        1 MOL      0.061235
    142 H61        -4.5860   -3.4620   -2.1860 hc        1 MOL      0.003708
    143 H62        -6.1600   -3.9810   -2.9340 hc        1 MOL      0.003708
    144 H63        -4.5820   -2.3080   -4.2930 hc        1 MOL      0.010806
    145 H64        -6.2920   -2.2620   -4.3300 hc        1 MOL      0.010806
    146 H65        -4.4120   -0.4570   -2.7190 h1        1 MOL      0.055329
    147 H66        -5.8530    0.0560   -3.5410 h1        1 MOL      0.055329
    148 N13        -4.9350   -1.8870    0.5200 n         1 MOL      0.040273
    149 C50        -4.2500   -1.9430    1.8540 c3        1 MOL     -0.091261
    150 C51        -4.9770   -1.1560    2.8720 c         1 MOL      0.512865
    151 O21        -5.1710   -1.7150    3.9960 o         1 MOL     -0.575199
    152 C52        -2.7490   -1.5160    1.6280 c3        1 MOL     -0.051170
    153 C53        -1.9290   -2.1040    0.5040 c3        1 MOL     -0.075776
    154 C54        -0.4870   -1.5860    0.4330 c         1 MOL      0.616217
    155 O22        -0.2260   -0.5110    1.0190 o         1 MOL     -0.701463
    156 O23         0.3530   -2.1540   -0.3450 o         1 MOL     -0.701463
    157 H67        -4.7080   -1.0740   -0.0420 hn        1 MOL      0.122966
    158 H68        -4.2580   -2.9670    2.2270 h1        1 MOL      0.099172
    159 H69        -2.2400   -1.6010    2.5870 hc        1 MOL      0.036375
    160 H70        -2.7380   -0.4390    1.4590 hc        1 MOL      0.036375
    161 H71        -2.4630   -1.8190   -0.4000 hc        1 MOL      0.039501
    162 H72        -1.9190   -3.1810    0.6380 hc        1 MOL      0.039501
    163 N14        -5.4770    0.0650    2.5540 n         1 MOL     -0.253120
    164 C55        -6.5570    0.7110    3.4480 c3        1 MOL     -0.070501
    165 H73        -7.4370    0.9420    2.8450 h1        1 MOL      0.055077
    166 H74        -6.8340    0.0180    4.2420 h1        1 MOL      0.055077
    167 H75        -6.1670    1.6290    3.8860 h1        1 MOL      0.055077
    168 H76        -5.0340    0.5040    1.7660 hn        1 MOL      0.177654
    169 Ca1         2.0810    0.1130   -0.0700 Ca        1 MOL      1.716165
    170 O24         4.7330    0.3060    1.2520 oh        1 MOL     -0.791093
    171 H77         4.9520    0.7170    2.0830 ho        1 MOL      0.387944
    172 H78         4.7520   -0.6310    1.4330 ho        1 MOL      0.387944
    173 O25         1.8600    0.1290    2.5970 oh        1 MOL     -0.791093
    174 H79         2.0540   -0.1270    3.4960 ho        1 MOL      0.387944
    175 H80         0.9900   -0.2340    2.4350 ho        1 MOL      0.387944
@<TRIPOS>BOND
     1    1    2 1   
     2    1    4 1   
     3    1    5 1   
     4    1    6 1   
     5    2    3 2   
     6    2    7 1   
     7    7    8 1   
     8    7   15 1   
     9    8    9 1   
    10    8   11 1   
    11    8   16 1   
    12    9   10 2   
    13    9   19 1   
    14   11   12 1   
    15   11   17 1   
    16   11   18 1   
    17   12   13 1   
    18   12   14 1   
    19   19   20 1   
    20   19   24 1   
    21   20   21 1   
    22   20   23 1   
    23   20   25 1   
    24   21   22 2   
    25   21   29 1   
    26   23   26 1   
    27   23   27 1   
    28   23   28 1   
    29   29   30 1   
    30   29   37 1   
    31   30   31 1   
    32   30   33 1   
    33   30   38 1   
    34   31   32 2   
    35   31   41 1   
    36   33   34 1   
    37   33   39 1   
    38   33   40 1   
    39   34   35 1   
    40   34   36 1   
    41   41   42 1   
    42   41   45 1   
    43   42   43 1   
    44   42   46 1   
    45   42   47 1   
    46   43   44 2   
    47   43   48 1   
    48   48   49 1   
    49   48   56 1   
    50   49   50 1   
    51   49   52 1   
    52   49   57 1   
    53   50   51 2   
    54   50   62 1   
    55   52   53 1   
    56   52   58 1   
    57   52   59 1   
    58   53   54 1   
    59   53   55 2   
    60   54   60 1   
    61   54   61 1   
    62   62   63 1   
    63   62   66 1   
    64   63   64 1   
    65   63   67 1   
    66   63   68 1   
    67   64   65 2   
    68   64   69 1   
    69   69   70 1   
    70   69   76 1   
    71   70   71 1   
    72   70   73 1   
    73   70   77 1   
    74   71   72 2   
    75   71   83 1   
    76   73   74 1   
    77   73   75 1   
    78   73   78 1   
    79   74   80 1   
    80   74   81 1   
    81   74   82 1   
    82   75   79 1   
    83   83   84 1   
    84   83   91 1   
    85   84   85 1   
    86   84   87 1   
    87   84   92 1   
    88   85   86 2   
    89   85  102 1   
    90   87   88 1   
    91   87   89 1   
    92   87   93 1   
    93   88   90 1   
    94   88   94 1   
    95   88   95 1   
    96   89   96 1   
    97   89   97 1   
    98   89   98 1   
    99   90   99 1   
   100   90  100 1   
   101   90  101 1   
   102  102  103 1   
   103  102  110 1   
   104  103  104 1   
   105  103  106 1   
   106  103  111 1   
   107  104  105 2   
   108  104  114 1   
   109  106  107 1   
   110  106  112 1   
   111  106  113 1   
   112  107  108 1   
   113  107  109 1   
   114  114  115 1   
   115  114  125 1   
   116  115  116 1   
   117  115  118 1   
   118  115  126 1   
   119  116  117 2   
   120  116  134 1   
   121  118  119 1   
   122  118  127 1   
   123  118  128 1   
   124  119  120 ar  
   125  119  121 ar  
   126  120  122 ar  
   127  120  129 1   
   128  121  123 ar  
   129  121  130 1   
   130  122  124 ar  
   131  122  131 1   
   132  123  124 ar  
   133  123  132 1   
   134  124  133 1   
   135  134  135 1   
   136  134  140 1   
   137  135  136 1   
   138  135  138 1   
   139  135  141 1   
   140  136  137 2   
   141  136  148 1   
   142  138  139 1   
   143  138  142 1   
   144  138  143 1   
   145  139  140 1   
   146  139  144 1   
   147  139  145 1   
   148  140  146 1   
   149  140  147 1   
   150  148  149 1   
   151  148  157 1   
   152  149  150 1   
   153  149  152 1   
   154  149  158 1   
   155  150  151 2   
   156  150  163 1   
   157  152  153 1   
   158  152  159 1   
   159  152  160 1   
   160  153  154 1   
   161  153  161 1   
   162  153  162 1   
   163  154  155 1   
   164  154  156 1   
   165  163  164 1   
   166  163  168 1   
   167  164  165 1   
   168  164  166 1   
   169  164  167 1   
   170  170  171 1   
   171  170  172 1   
   172  173  174 1   
   173  173  175 1   
@<TRIPOS>SUBSTRUCTURE
     1 MOL         1 TEMP              0 ****  ****    0 ROOT
