@<TRIPOS>MOLECULE
MOL
  172   171     1     0     0
SMALL
resp


@<TRIPOS>ATOM
      1 C1         -0.1180    4.4940    5.5330 c3        1 MOL     -0.452037
      2 C2         -0.4600    4.3950    4.0650 c         1 MOL      0.803266
      3 O1          0.3610    4.5080    3.1950 o         1 MOL     -0.577253
      4 H1          0.7300    5.1650    5.6630 hc        1 MOL      0.108805
      5 H2         -0.9760    4.8830    6.0820 hc        1 MOL      0.108805
      6 H3          0.1400    3.5050    5.9130 hc        1 MOL      0.108805
      7 N1         -1.7510    4.0920    3.7580 n         1 MOL     -0.731419
      8 C3         -2.2650    3.6430    2.4050 c3        1 MOL      0.183976
      9 C4         -2.6540    4.8460    1.5540 c         1 MOL      0.704449
     10 O2         -3.1500    5.8700    1.9980 o         1 MOL     -0.568592
     11 C5         -3.5090    2.7960    2.6490 c3        1 MOL     -0.354404
     12 C6         -4.0720    2.1880    1.3420 c         1 MOL      0.697056
     13 O3         -5.1580    1.5770    1.3990 o         1 MOL     -0.653036
     14 O4         -3.3460    2.0410    0.3390 o         1 MOL     -0.653036
     15 H4         -2.2790    3.7540    4.5480 hn        1 MOL      0.329308
     16 H5         -1.5260    2.9920    1.9260 h1        1 MOL      0.077512
     17 H6         -4.3440    3.3330    3.1040 hc        1 MOL      0.099017
     18 H7         -3.2730    1.8890    3.2030 hc        1 MOL      0.099017
     19 N2         -2.6160    4.6380    0.2160 n         1 MOL     -0.734583
     20 C7         -3.0470    5.5330   -0.8230 c3        1 MOL      0.251254
     21 C8         -3.7880    4.8850   -1.9490 c         1 MOL      0.569197
     22 O5         -3.7920    5.4620   -3.0690 o         1 MOL     -0.577084
     23 C9         -1.8190    6.3530   -1.2110 c3        1 MOL     -0.220831
     24 H8         -2.2090    3.7790   -0.1190 hn        1 MOL      0.377912
     25 H9         -3.6940    6.3040   -0.4030 h1        1 MOL      0.021934
     26 H10        -1.4210    6.8120   -0.3020 hc        1 MOL      0.057070
     27 H11        -1.1040    5.6380   -1.6150 hc        1 MOL      0.057070
     28 H12        -1.9040    7.1120   -1.9860 hc        1 MOL      0.057070
     29 N3         -4.3430    3.6850   -1.8050 n         1 MOL     -0.703969
     30 C10        -5.2500    3.1180   -2.8140 c3        1 MOL      0.256583
     31 C11        -6.4720    2.4150   -2.3740 c         1 MOL      0.351712
     32 O6         -7.4260    2.3770   -3.1450 o         1 MOL     -0.558604
     33 C12        -4.3390    2.2190   -3.7120 c3        1 MOL     -0.238267
     34 C13        -3.5750    1.1060   -2.8920 c         1 MOL      0.681018
     35 O7         -4.0640    0.5790   -1.9030 o         1 MOL     -0.680310
     36 O8         -2.4270    0.8010   -3.2290 o         1 MOL     -0.680310
     37 H13        -3.9610    3.0780   -1.1000 hn        1 MOL      0.497337
     38 H14        -5.5020    3.9720   -3.4360 h1        1 MOL      0.049894
     39 H15        -3.6580    2.9380   -4.1730 hc        1 MOL      0.062439
     40 H16        -4.9770    1.7650   -4.4810 hc        1 MOL      0.062439
     41 N4         -6.5070    1.7770   -1.1610 n         1 MOL     -0.117133
     42 C14        -7.5870    0.9970   -0.5300 c3        1 MOL     -0.253336
     43 C15        -7.3090   -0.5030   -0.6690 c         1 MOL      0.557596
     44 O9         -8.1180   -1.2520   -0.0680 o         1 MOL     -0.624454
     45 H17        -5.7040    1.8530   -0.5520 hn        1 MOL      0.057626
     46 H18        -8.5680    1.1570   -0.9740 h1        1 MOL      0.132208
     47 H19        -7.6800    1.3270    0.5070 h1        1 MOL      0.132208
     48 N5         -6.2690   -1.0370   -1.3500 n         1 MOL     -0.238229
     49 C16        -6.2670   -2.4210   -1.7760 c3        1 MOL     -0.179190
     50 C17        -6.1170   -3.5780   -0.7760 c         1 MOL      0.490825
     51 O10        -6.2150   -4.7610   -1.0750 o         1 MOL     -0.544413
     52 C18        -5.1950   -2.5490   -2.8530 c3        1 MOL      0.020922
     53 C19        -3.7020   -2.6410   -2.4750 c         1 MOL      0.572811
     54 N6         -2.8270   -2.6960   -3.4830 n         1 MOL     -0.690945
     55 O11        -3.2670   -2.4660   -1.3170 o         1 MOL     -0.528905
     56 H20        -5.5830   -0.3740   -1.6890 hn        1 MOL      0.214106
     57 H21        -7.2400   -2.5130   -2.2610 h1        1 MOL      0.122186
     58 H22        -5.3730   -1.8730   -3.6950 hc        1 MOL      0.020824
     59 H23        -5.4080   -3.4660   -3.4070 hc        1 MOL      0.020824
     60 H24        -3.1140   -2.6730   -4.4520 hn        1 MOL      0.343999
     61 H25        -1.8730   -2.4510   -3.2550 hn        1 MOL      0.343999
     62 N7         -5.8760   -3.2310    0.4860 n         1 MOL     -0.203045
     63 C20        -5.8020   -4.2570    1.5690 c3        1 MOL     -0.137601
     64 C21        -4.3760   -4.5870    2.0020 c         1 MOL      0.443627
     65 O12        -4.2160   -5.4780    2.8920 o         1 MOL     -0.576255
     66 H26        -5.7750   -2.2820    0.8000 hn        1 MOL      0.227070
     67 H27        -6.2550   -5.2070    1.2910 h1        1 MOL      0.100997
     68 H28        -6.4180   -3.9100    2.3990 h1        1 MOL      0.100997
     69 N8         -3.3520   -3.9880    1.3690 n         1 MOL     -0.140413
     70 C22        -1.9570   -4.3710    1.6590 c3        1 MOL     -0.222465
     71 C23        -1.1160   -3.1230    1.8340 c         1 MOL      0.657946
     72 O13        -1.4500   -2.1470    1.1870 o         1 MOL     -0.572211
     73 C24        -1.3100   -5.2940    0.5550 c3        1 MOL      0.442850
     74 C25        -1.5750   -6.8440    0.6600 c3        1 MOL     -0.439962
     75 O14        -1.7880   -4.9150   -0.7430 oh        1 MOL     -0.593264
     76 H29        -3.4320   -3.2750    0.6670 hn        1 MOL      0.154453
     77 H30        -1.9720   -4.9270    2.6030 h1        1 MOL      0.088754
     78 H31        -0.2450   -5.0490    0.5610 h1        1 MOL     -0.015827
     79 H32        -1.8250   -3.9660   -0.9000 ho        1 MOL      0.330110
     80 H33        -2.5950   -6.9480    1.0410 hc        1 MOL      0.117392
     81 H34        -1.5260   -7.2440   -0.3490 hc        1 MOL      0.117392
     82 H35        -0.9890   -7.4850    1.3170 hc        1 MOL      0.117392
     83 N9         -0.0780   -3.2690    2.5840 n         1 MOL     -0.626794
     84 C26         1.1070   -2.3930    2.5360 c3        1 MOL      0.289983
     85 C27         1.7730   -2.7730    1.2150 c         1 MOL      0.300410
     86 O15         2.4230   -3.8250    1.1440 o         1 MOL     -0.548778
     87 C28         1.9350   -2.5070    3.8940 c3        1 MOL      0.036713
     88 C29         1.5130   -1.4520    4.8900 c3        1 MOL      0.000474
     89 C30         3.4630   -2.3360    3.7070 c3        1 MOL     -0.346743
     90 C31         2.2990   -1.1810    6.2650 c3        1 MOL     -0.084722
     91 H36         0.1470   -4.2230    2.8430 hn        1 MOL      0.304949
     92 H37         0.8110   -1.3500    2.4220 h1        1 MOL      0.007862
     93 H38         1.7770   -3.5120    4.2870 hc        1 MOL      0.024333
     94 H39         0.5020   -1.6740    5.2430 hc        1 MOL      0.007897
     95 H40         1.4760   -0.5080    4.3460 hc        1 MOL      0.007897
     96 H41         3.9660   -2.5210    4.6510 hc        1 MOL      0.079666
     97 H42         3.8480   -2.9440    2.8890 hc        1 MOL      0.079666
     98 H43         3.7880   -1.3030    3.5780 hc        1 MOL      0.079666
     99 H44         3.1730   -0.5490    6.1050 hc        1 MOL      0.020583
    100 H45         1.6080   -0.6630    6.9370 hc        1 MOL      0.020583
    101 H46         2.6190   -2.0860    6.7600 hc        1 MOL      0.020583
    102 N10         1.6450   -1.9390    0.1800 n         1 MOL     -0.102481
    103 C32         2.5470   -2.0460   -0.9510 c3        1 MOL      0.220143
    104 C33         4.0290   -1.5060   -0.7930 c         1 MOL      0.393701
    105 O16         4.2880   -1.0530    0.3320 o         1 MOL     -0.384931
    106 C34         1.9180   -1.3880   -2.1530 c3        1 MOL     -0.253741
    107 C35         0.4620   -1.6370   -2.5670 c         1 MOL      0.627203
    108 O17        -0.4620   -1.4350   -1.7190 o         1 MOL     -0.635851
    109 O18         0.2370   -1.9710   -3.7720 o         1 MOL     -0.635851
    110 H47         0.9860   -1.1910    0.3410 hn        1 MOL      0.088541
    111 H48         2.5800   -3.1000   -1.2060 h1        1 MOL      0.017006
    112 H49         2.4950   -1.7170   -3.0160 hc        1 MOL      0.050456
    113 H50         2.1210   -0.3190   -2.0420 hc        1 MOL      0.050456
    114 N11         4.9830   -1.6880   -1.7040 n         1 MOL     -0.667595
    115 C36         6.3960   -1.4030   -1.4650 c3        1 MOL      0.554769
    116 C37         6.6180   -0.0190   -0.9190 c         1 MOL      0.199093
    117 O19         7.1180    0.1520    0.1860 o         1 MOL     -0.477809
    118 C38         7.1870   -1.7810   -2.7440 c3        1 MOL     -0.126938
    119 C39         8.6910   -1.5280   -2.7480 ca        1 MOL      0.027813
    120 C40         9.5410   -2.1710   -1.8090 ca        1 MOL     -0.163448
    121 C41         9.1900   -0.4100   -3.3800 ca        1 MOL     -0.163448
    122 C42        10.8840   -1.8670   -1.8470 ca        1 MOL     -0.065816
    123 C43        10.5300   -0.0290   -3.2330 ca        1 MOL     -0.065816
    124 C44        11.4290   -0.8370   -2.5560 ca        1 MOL     -0.136242
    125 H51         4.6670   -2.1740   -2.5340 hn        1 MOL      0.325629
    126 H52         6.7640   -2.0970   -0.7110 h1        1 MOL     -0.005186
    127 H53         6.6610   -1.3680   -3.6040 hc        1 MOL      0.028886
    128 H54         7.0370   -2.8580   -2.7540 hc        1 MOL      0.028886
    129 H55         9.1890   -3.0020   -1.2170 ha        1 MOL      0.116552
    130 H56         8.5910    0.2240   -4.0200 ha        1 MOL      0.116552
    131 H57        11.6010   -2.5830   -1.4800 ha        1 MOL      0.088276
    132 H58        10.8200    0.9330   -3.6150 ha        1 MOL      0.088276
    133 H59        12.4970   -0.6910   -2.5230 ha        1 MOL      0.108137
    134 N12         6.2630    1.0540   -1.6600 n         1 MOL      0.053046
    135 C45         6.3950    2.4540   -1.1980 c3        1 MOL     -0.103669
    136 C46         5.6090    2.7870    0.1010 c         1 MOL      0.536440
    137 O20         6.0400    3.6280    0.8290 o         1 MOL     -0.530869
    138 C47         5.8590    3.2990   -2.3800 c3        1 MOL     -0.179420
    139 C48         5.1250    2.3460   -3.3420 c3        1 MOL     -0.146592
    140 C49         5.6830    1.0040   -3.0400 c3        1 MOL      0.129798
    141 H60         7.4570    2.6560   -1.0370 h1        1 MOL      0.080932
    142 H61         5.2630    4.1370   -2.0200 hc        1 MOL      0.084440
    143 H62         6.7450    3.6530   -2.9090 hc        1 MOL      0.084440
    144 H63         4.0900    2.1910   -3.0380 hc        1 MOL      0.072395
    145 H64         5.2340    2.6920   -4.3750 hc        1 MOL      0.072395
    146 H65         5.0130    0.1750   -3.2510 h1        1 MOL     -0.020737
    147 H66         6.5440    0.7720   -3.6660 h1        1 MOL     -0.020737
    148 N13         4.5360    2.0390    0.3770 n         1 MOL     -0.326920
    149 C50         3.8520    2.1250    1.7260 c3        1 MOL     -0.220769
    150 C51         4.6930    1.5110    2.9210 c         1 MOL      0.448021
    151 O21         4.6150    2.0260    4.0480 o         1 MOL     -0.541686
    152 C52         2.4590    1.5010    1.6250 c3        1 MOL      0.016814
    153 C53         1.6080    1.9920    0.4490 c3        1 MOL     -0.114158
    154 C54         0.1540    1.5120    0.3950 c         1 MOL      0.657609
    155 O22        -0.0570    0.3300    0.7670 o         1 MOL     -0.691776
    156 O23        -0.6070    2.1120   -0.3840 o         1 MOL     -0.691776
    157 H67         4.2640    1.3330   -0.3020 hn        1 MOL      0.230843
    158 H68         3.7350    3.1770    1.9880 h1        1 MOL      0.159670
    159 H69         1.8700    1.7050    2.5180 hc        1 MOL      0.061315
    160 H70         2.5680    0.4240    1.5220 hc        1 MOL      0.061315
    161 H71         2.0480    1.6320   -0.4750 hc        1 MOL      0.041152
    162 H72         1.4760    3.0720    0.5080 hc        1 MOL      0.041152
    163 N14         5.5390    0.4490    2.6300 n         1 MOL      0.090220
    164 C55         6.3660   -0.0560    3.7350 c3        1 MOL     -0.196451
    165 H73         7.0880    0.7080    4.0250 h1        1 MOL      0.064363
    166 H74         5.7290   -0.2940    4.5870 h1        1 MOL      0.064363
    167 H75         6.8960   -0.9530    3.4140 h1        1 MOL      0.064363
    168 H76         5.7180    0.1760    1.6730 hn        1 MOL      0.018142
    169 Ca1        -2.2220   -0.2190   -0.3810 Ca        1 MOL      1.683542
    170 O24        -3.9990   -0.6200    1.3780 oh        1 MOL     -0.918749
    171 H77        -4.5430   -1.1580    1.9480 ho        1 MOL      0.413710
    172 H78        -4.4810    0.2080    1.3160 ho        1 MOL      0.413710
@<TRIPOS>BOND
     1    1    2 1   
     2    1    4 1   
     3    1    5 1   
     4    1    6 1   
     5    2    3 2   
     6    2    7 1   
     7    7    8 1   
     8    7   15 1   
     9    8    9 1   
    10    8   11 1   
    11    8   16 1   
    12    9   10 2   
    13    9   19 1   
    14   11   12 1   
    15   11   17 1   
    16   11   18 1   
    17   12   13 1   
    18   12   14 1   
    19   19   20 1   
    20   19   24 1   
    21   20   21 1   
    22   20   23 1   
    23   20   25 1   
    24   21   22 2   
    25   21   29 1   
    26   23   26 1   
    27   23   27 1   
    28   23   28 1   
    29   29   30 1   
    30   29   37 1   
    31   30   31 1   
    32   30   33 1   
    33   30   38 1   
    34   31   32 2   
    35   31   41 1   
    36   33   34 1   
    37   33   39 1   
    38   33   40 1   
    39   34   35 1   
    40   34   36 1   
    41   41   42 1   
    42   41   45 1   
    43   42   43 1   
    44   42   46 1   
    45   42   47 1   
    46   43   44 2   
    47   43   48 1   
    48   48   49 1   
    49   48   56 1   
    50   49   50 1   
    51   49   52 1   
    52   49   57 1   
    53   50   51 2   
    54   50   62 1   
    55   52   53 1   
    56   52   58 1   
    57   52   59 1   
    58   53   54 1   
    59   53   55 2   
    60   54   60 1   
    61   54   61 1   
    62   62   63 1   
    63   62   66 1   
    64   63   64 1   
    65   63   67 1   
    66   63   68 1   
    67   64   65 2   
    68   64   69 1   
    69   69   70 1   
    70   69   76 1   
    71   70   71 1   
    72   70   73 1   
    73   70   77 1   
    74   71   72 2   
    75   71   83 1   
    76   73   74 1   
    77   73   75 1   
    78   73   78 1   
    79   74   80 1   
    80   74   81 1   
    81   74   82 1   
    82   75   79 1   
    83   83   84 1   
    84   83   91 1   
    85   84   85 1   
    86   84   87 1   
    87   84   92 1   
    88   85   86 2   
    89   85  102 1   
    90   87   88 1   
    91   87   89 1   
    92   87   93 1   
    93   88   90 1   
    94   88   94 1   
    95   88   95 1   
    96   89   96 1   
    97   89   97 1   
    98   89   98 1   
    99   90   99 1   
   100   90  100 1   
   101   90  101 1   
   102  102  103 1   
   103  102  110 1   
   104  103  104 1   
   105  103  106 1   
   106  103  111 1   
   107  104  105 2   
   108  104  114 1   
   109  106  107 1   
   110  106  112 1   
   111  106  113 1   
   112  107  108 1   
   113  107  109 1   
   114  114  115 1   
   115  114  125 1   
   116  115  116 1   
   117  115  118 1   
   118  115  126 1   
   119  116  117 2   
   120  116  134 1   
   121  118  119 1   
   122  118  127 1   
   123  118  128 1   
   124  119  120 ar  
   125  119  121 ar  
   126  120  122 ar  
   127  120  129 1   
   128  121  123 ar  
   129  121  130 1   
   130  122  124 ar  
   131  122  131 1   
   132  123  124 ar  
   133  123  132 1   
   134  124  133 1   
   135  134  135 1   
   136  134  140 1   
   137  135  136 1   
   138  135  138 1   
   139  135  141 1   
   140  136  137 2   
   141  136  148 1   
   142  138  139 1   
   143  138  142 1   
   144  138  143 1   
   145  139  140 1   
   146  139  144 1   
   147  139  145 1   
   148  140  146 1   
   149  140  147 1   
   150  148  149 1   
   151  148  157 1   
   152  149  150 1   
   153  149  152 1   
   154  149  158 1   
   155  150  151 2   
   156  150  163 1   
   157  152  153 1   
   158  152  159 1   
   159  152  160 1   
   160  153  154 1   
   161  153  161 1   
   162  153  162 1   
   163  154  155 1   
   164  154  156 1   
   165  163  164 1   
   166  163  168 1   
   167  164  165 1   
   168  164  166 1   
   169  164  167 1   
   170  170  171 1   
   171  170  172 1   
@<TRIPOS>SUBSTRUCTURE
     1 MOL         1 TEMP              0 ****  ****    0 ROOT
