@<TRIPOS>MOLECULE
MOL
  186   183     1     0     0
SMALL
resp


@<TRIPOS>ATOM
      1 C1         -0.6920    1.4200    6.5550 c3        1 MOL     -0.244692
      2 C2         -1.0670    1.4470    5.0390 c         1 MOL      0.708644
      3 O1         -0.1400    1.6050    4.2420 o         1 MOL     -0.570948
      4 H1          0.3880    1.3150    6.6590 hc        1 MOL      0.056986
      5 H2         -1.0130    2.3490    7.0270 hc        1 MOL      0.056986
      6 H3         -1.1870    0.5780    7.0370 hc        1 MOL      0.056986
      7 N1         -2.3240    1.1290    4.5770 n         1 MOL     -0.624447
      8 C3         -2.7040    1.1700    3.1730 c3        1 MOL     -0.088780
      9 C4         -3.1940    2.6290    2.8330 c         1 MOL      0.565203
     10 O2         -4.1790    3.1510    3.4020 o         1 MOL     -0.569156
     11 C5         -3.8720    0.1540    2.8930 c3        1 MOL     -0.183313
     12 C6         -4.5920    0.5310    1.5290 c         1 MOL      0.667051
     13 O3         -5.8310    0.3320    1.4240 o         1 MOL     -0.599701
     14 O4         -3.9310    0.9340    0.5380 o         1 MOL     -0.599701
     15 H4         -3.1000    0.8800    5.1740 hn        1 MOL      0.344692
     16 H5         -1.8170    0.9000    2.6080 h1        1 MOL      0.085606
     17 H6         -4.6650    0.2710    3.6210 hc        1 MOL      0.055389
     18 H7         -3.5910   -0.8980    2.8780 hc        1 MOL      0.055389
     19 N2         -2.5190    3.2210    1.8790 n         1 MOL     -0.215244
     20 C7         -2.6030    4.6560    1.4640 c3        1 MOL     -0.347279
     21 C8         -3.8000    4.9570    0.5220 c         1 MOL      0.682626
     22 O5         -4.4750    5.9960    0.6180 o         1 MOL     -0.599859
     23 C9         -1.2910    5.1390    0.7630 c3        1 MOL      0.281546
     24 C10        -0.3500    5.3030    1.9890 c3        1 MOL     -0.027595
     25 C11        -1.3300    6.4620   -0.1140 c3        1 MOL     -0.293971
     26 C12         1.0470    5.9250    1.8240 c3        1 MOL     -0.184624
     27 H8         -1.7020    2.7160    1.5530 hn        1 MOL      0.259215
     28 H9         -2.8420    5.2850    2.3260 h1        1 MOL      0.103578
     29 H10        -0.8500    4.3180    0.2020 hc        1 MOL     -0.029338
     30 H11        -0.1410    4.2710    2.2810 hc        1 MOL      0.027649
     31 H12        -0.8010    5.7910    2.8610 hc        1 MOL      0.027649
     32 H13        -1.8720    6.2740   -1.0380 hc        1 MOL      0.072085
     33 H14        -1.7500    7.2560    0.5180 hc        1 MOL      0.072085
     34 H15        -0.3100    6.7500   -0.3400 hc        1 MOL      0.072085
     35 H16         0.9230    6.9880    1.5980 hc        1 MOL      0.040121
     36 H17         1.6180    5.7690    2.7390 hc        1 MOL      0.040121
     37 H18         1.5280    5.4820    0.9530 hc        1 MOL      0.040121
     38 N3         -4.0530    4.0590   -0.5030 n         1 MOL     -0.453233
     39 C13        -4.8950    4.2800   -1.7000 c3        1 MOL      0.029737
     40 C14        -6.0450    3.4030   -1.7740 c         1 MOL      0.463943
     41 O6         -6.6620    3.3840   -2.8150 o         1 MOL     -0.511287
     42 C15        -4.0330    4.3130   -2.9430 c3        1 MOL     -0.114019
     43 C16        -3.2920    2.9820   -3.1320 c         1 MOL      0.844546
     44 O7         -2.6100    2.9410   -4.1590 o         1 MOL     -0.734243
     45 O8         -3.4020    1.9820   -2.3920 o         1 MOL     -0.734243
     46 H19        -3.6170    3.1510   -0.3960 hn        1 MOL      0.178187
     47 H20        -5.3670    5.2560   -1.7180 h1        1 MOL      0.083081
     48 H21        -3.2940    5.1070   -2.8210 hc        1 MOL      0.018682
     49 H22        -4.5850    4.4670   -3.8720 hc        1 MOL      0.018682
     50 N4         -6.4330    2.6320   -0.7360 n         1 MOL     -0.332606
     51 C17        -7.8410    2.0840   -0.6250 c3        1 MOL     -0.108330
     52 C18        -8.0140    0.7050   -1.3120 c         1 MOL      0.370569
     53 O9         -8.9160    0.5380   -2.1540 o         1 MOL     -0.567489
     54 H23        -5.7690    2.4680    0.0060 hn        1 MOL      0.251433
     55 H24        -8.5650    2.8020   -1.0230 h1        1 MOL      0.086573
     56 H25        -8.0510    1.9160    0.4260 h1        1 MOL      0.086573
     57 N5         -7.0970   -0.2680   -1.1660 n         1 MOL      0.005942
     58 C19        -7.1340   -1.6320   -1.6900 c3        1 MOL      0.020850
     59 C20        -7.1440   -2.6750   -0.5370 c         1 MOL      0.334100
     60 O10        -7.3680   -3.8680   -0.7820 o         1 MOL     -0.526813
     61 C21        -6.0000   -2.0420   -2.6480 c3        1 MOL     -0.153137
     62 C22        -4.6170   -1.5000   -2.1580 c         1 MOL      0.709674
     63 O11        -3.9000   -0.8770   -2.9420 o         1 MOL     -0.720938
     64 O12        -4.2630   -1.6260   -1.0080 o         1 MOL     -0.720938
     65 H26        -6.3070    0.1170   -0.6570 hn        1 MOL      0.105562
     66 H27        -8.0860   -1.6820   -2.2270 h1        1 MOL      0.064871
     67 H28        -6.1590   -1.6800   -3.6600 hc        1 MOL      0.063732
     68 H29        -5.9270   -3.1320   -2.7390 hc        1 MOL      0.063732
     69 N6         -6.8590   -2.2390    0.6980 n         1 MOL     -0.235573
     70 C23        -6.6990   -3.1450    1.8110 c3        1 MOL      0.111026
     71 C24        -5.3960   -3.9990    1.8620 c         1 MOL      0.368299
     72 O13        -5.3200   -5.0300    2.5870 o         1 MOL     -0.576320
     73 H30        -6.5800   -1.2760    0.8250 hn        1 MOL      0.095173
     74 H31        -7.5390   -3.8290    1.9150 h1        1 MOL      0.018207
     75 H32        -6.6510   -2.5640    2.7310 h1        1 MOL      0.018207
     76 N7         -4.4010   -3.5230    1.0880 n         1 MOL     -0.184368
     77 C25        -3.1240   -4.2040    0.9220 c3        1 MOL     -0.106639
     78 C26        -1.9890   -3.2190    1.1030 c         1 MOL      0.620332
     79 O14        -2.1240   -2.0740    0.6570 o         1 MOL     -0.620488
     80 C27        -3.1340   -4.6790   -0.5590 c3        1 MOL      0.017250
     81 C28        -4.2220   -5.7140   -0.8650 c3        1 MOL     -0.229325
     82 C29        -4.3290   -6.1870   -2.2990 c         1 MOL      0.605933
     83 N8         -5.0900   -7.2520   -2.5910 n         1 MOL     -0.782029
     84 O15        -3.9530   -5.4900   -3.2580 o         1 MOL     -0.542225
     85 H33        -4.5880   -2.7280    0.4950 hn        1 MOL      0.294148
     86 H34        -3.0570   -5.0830    1.5550 h1        1 MOL      0.079854
     87 H35        -2.1840   -5.1090   -0.8550 hc        1 MOL      0.037887
     88 H36        -3.1920   -3.8370   -1.2520 hc        1 MOL      0.037887
     89 H37        -5.2170   -5.3200   -0.6630 hc        1 MOL      0.079024
     90 H38        -3.9840   -6.5360   -0.1890 hc        1 MOL      0.079024
     91 H39        -5.6580   -7.7220   -1.9090 hn        1 MOL      0.349710
     92 H40        -5.0790   -7.5150   -3.5590 hn        1 MOL      0.349710
     93 N9         -0.8430   -3.6310    1.6540 n         1 MOL     -0.530088
     94 C30         0.3950   -2.7770    1.8500 c3        1 MOL      0.055428
     95 C31         1.4830   -3.2850    0.9610 c         1 MOL      0.498720
     96 O16         1.9070   -4.4150    1.0700 o         1 MOL     -0.589036
     97 C32         0.8330   -2.7330    3.3090 c3        1 MOL      0.121511
     98 C33         2.2220   -2.2080    3.7530 c3        1 MOL     -0.292015
     99 C34        -0.1860   -2.0300    4.1040 c3        1 MOL     -0.292015
    100 H41        -0.7210   -4.5800    1.9600 hn        1 MOL      0.284919
    101 H42         0.1200   -1.8090    1.4140 h1        1 MOL      0.180245
    102 H43         0.8230   -3.7500    3.6880 hc        1 MOL      0.001650
    103 H44         2.2200   -1.1310    3.6050 hc        1 MOL      0.076793
    104 H45         2.3890   -2.3630    4.8260 hc        1 MOL      0.076793
    105 H46         2.9490   -2.6910    3.1030 hc        1 MOL      0.076793
    106 H47        -1.0980   -2.6320    4.1510 hc        1 MOL      0.076793
    107 H48         0.0310   -1.8940    5.1650 hc        1 MOL      0.076793
    108 H49        -0.4790   -1.1400    3.5540 hc        1 MOL      0.076793
    109 N10         1.8950   -2.4650    0.0000 n         1 MOL     -0.262275
    110 C35         2.9930   -2.8080   -0.8690 c3        1 MOL      0.098625
    111 C36         4.3340   -2.2830   -0.3790 c         1 MOL      0.357453
    112 O17         4.3520   -1.4990    0.5630 o         1 MOL     -0.224579
    113 C37         2.7030   -2.3620   -2.2860 c3        1 MOL     -0.438723
    114 C38         3.1090   -0.9060   -2.5610 c         1 MOL      0.665905
    115 N11         2.3700    0.1090   -2.0740 n         1 MOL     -0.754149
    116 O18         4.1330   -0.7080   -3.1620 o         1 MOL     -0.578992
    117 H50         1.4930   -1.5440   -0.0890 hn        1 MOL      0.190464
    118 H51         3.0710   -3.8980   -0.9250 h1        1 MOL      0.074682
    119 H52         1.6600   -2.5480   -2.5480 hc        1 MOL      0.140913
    120 H53         3.2480   -2.9700   -2.9990 hc        1 MOL      0.140913
    121 H54         1.5310   -0.0330   -1.5250 hn        1 MOL      0.365356
    122 H55         2.6160    1.0740   -2.2730 hn        1 MOL      0.365356
    123 N12         5.5200   -2.7260   -0.8650 n         1 MOL     -0.593208
    124 C39         6.8670   -2.2840   -0.4130 c3        1 MOL      0.340766
    125 C40         6.9610   -0.7520   -0.2160 c         1 MOL      0.642075
    126 O19         7.4050   -0.2850    0.8290 o         1 MOL     -0.541800
    127 C41         7.9110   -2.7720   -1.4160 c3        1 MOL     -0.318069
    128 C42         9.3120   -2.2800   -1.0860 ca        1 MOL      0.155037
    129 C43         9.8480   -2.4790    0.2050 ca        1 MOL     -0.224078
    130 C44        10.1120   -1.6380   -2.0180 ca        1 MOL     -0.224078
    131 C45        11.0730   -2.0510    0.6010 ca        1 MOL     -0.281997
    132 C46        11.3730   -1.1070   -1.6510 ca        1 MOL     -0.281997
    133 C47        11.9080   -1.3290   -0.3440 ca        1 MOL      0.369481
    134 O20        13.1470   -0.8670   -0.0900 oh        1 MOL     -0.477747
    135 H56         5.4950   -3.5180   -1.4890 hn        1 MOL      0.307477
    136 H57         6.9980   -2.7210    0.5700 h1        1 MOL      0.001500
    137 H58         7.6760   -2.3670   -2.4070 hc        1 MOL      0.090754
    138 H59         7.9100   -3.8550   -1.3940 hc        1 MOL      0.090754
    139 H60         9.2970   -3.0010    0.9830 ha        1 MOL      0.153088
    140 H61         9.7320   -1.3260   -2.9820 ha        1 MOL      0.153088
    141 H62        11.3500   -2.1920    1.6360 ha        1 MOL      0.159684
    142 H63        11.9850   -0.4710   -2.2660 ha        1 MOL      0.159684
    143 H64        13.4970   -0.5980   -0.9350 ho        1 MOL      0.333962
    144 N13         6.5300    0.1120   -1.1660 n         1 MOL     -0.498154
    145 C48         6.5700    1.5740   -1.0870 c3        1 MOL      0.012875
    146 C49         5.7090    2.1270    0.1110 c         1 MOL      0.395472
    147 O21         6.0670    3.0990    0.7200 o         1 MOL     -0.506165
    148 C50         5.9900    2.0820   -2.4270 c3        1 MOL      0.134825
    149 C51         6.2430    3.5400   -2.9350 c3        1 MOL     -0.360664
    150 C52         5.4800    3.8710   -4.1830 c         1 MOL      0.800216
    151 O22         4.8700    4.9340   -4.2760 o         1 MOL     -0.752662
    152 O23         5.4650    3.0450   -5.1440 o         1 MOL     -0.752662
    153 H65         6.2360   -0.2800   -2.0510 hn        1 MOL      0.299324
    154 H66         7.5800    1.9570   -0.9060 h1        1 MOL      0.066774
    155 H67         4.9040    2.0110   -2.3250 hc        1 MOL     -0.007426
    156 H68         6.1710    1.3830   -3.2410 hc        1 MOL     -0.007426
    157 H69         7.3090    3.5860   -3.1620 hc        1 MOL      0.046467
    158 H70         5.9260    4.1480   -2.0890 hc        1 MOL      0.046467
    159 N14         4.6340    1.3650    0.5410 n         1 MOL     -0.027638
    160 C53         3.8820    1.7350    1.7340 c3        1 MOL     -0.098417
    161 C54         4.5930    1.2380    3.0670 c         1 MOL      0.413777
    162 O24         4.4870    1.8800    4.1230 o         1 MOL     -0.577239
    163 C55         2.4980    1.1220    1.5950 c3        1 MOL      0.216041
    164 C56         1.5590    1.9270    0.7000 c3        1 MOL      0.018788
    165 C57         0.3140    1.1460    0.2830 c         1 MOL      0.710360
    166 O25        -0.8560    1.5500    0.3770 o         1 MOL     -0.728994
    167 O26         0.4650   -0.0260   -0.1500 o         1 MOL     -0.728994
    168 H71         4.4400    0.4480    0.1720 hn        1 MOL     -0.017394
    169 H72         3.7540    2.8170    1.7770 h1        1 MOL      0.091562
    170 H73         1.9220    1.1130    2.5230 hc        1 MOL     -0.028941
    171 H74         2.6510    0.1230    1.1910 hc        1 MOL     -0.028941
    172 H75         2.1180    2.1670   -0.2060 hc        1 MOL     -0.018424
    173 H76         1.2670    2.8440    1.2030 hc        1 MOL     -0.018424
    174 N15         5.2900    0.1150    3.1050 n         1 MOL      0.029144
    175 C58         6.1060   -0.4560    4.1780 c3        1 MOL     -0.294772
    176 H77         6.8600   -1.1150    3.7470 h1        1 MOL      0.098721
    177 H78         6.5950    0.3460    4.7300 h1        1 MOL      0.098721
    178 H79         5.4700   -1.0280    4.8540 h1        1 MOL      0.098721
    179 H80         5.2500   -0.3780    2.2200 hn        1 MOL     -0.015453
    180 Ca1        -2.2570    0.0330   -1.1420 Ca        1 MOL      1.725932
    181 O27        -0.9820   -2.0160   -2.3520 oh        1 MOL     -0.850255
    182 H81        -0.2530   -1.8300   -2.9510 ho        1 MOL      0.402161
    183 H82        -1.5050   -2.6620   -2.8150 ho        1 MOL      0.402161
    184 O28        -0.7650    1.1890   -3.0720 oh        1 MOL     -0.850255
    185 H83        -0.9710    2.0990   -3.2790 ho        1 MOL      0.402161
    186 H84        -0.0910    0.9320   -3.6950 ho        1 MOL      0.402161
@<TRIPOS>BOND
     1    1    2 1   
     2    1    4 1   
     3    1    5 1   
     4    1    6 1   
     5    2    3 2   
     6    2    7 1   
     7    7    8 1   
     8    7   15 1   
     9    8    9 1   
    10    8   11 1   
    11    8   16 1   
    12    9   10 2   
    13    9   19 1   
    14   11   12 1   
    15   11   17 1   
    16   11   18 1   
    17   12   13 1   
    18   12   14 1   
    19   19   20 1   
    20   19   27 1   
    21   20   21 1   
    22   20   23 1   
    23   20   28 1   
    24   21   22 2   
    25   21   38 1   
    26   23   24 1   
    27   23   25 1   
    28   23   29 1   
    29   24   26 1   
    30   24   30 1   
    31   24   31 1   
    32   25   32 1   
    33   25   33 1   
    34   25   34 1   
    35   26   35 1   
    36   26   36 1   
    37   26   37 1   
    38   38   39 1   
    39   38   46 1   
    40   39   40 1   
    41   39   42 1   
    42   39   47 1   
    43   40   41 2   
    44   40   50 1   
    45   42   43 1   
    46   42   48 1   
    47   42   49 1   
    48   43   44 1   
    49   43   45 1   
    50   50   51 1   
    51   50   54 1   
    52   51   52 1   
    53   51   55 1   
    54   51   56 1   
    55   52   53 2   
    56   52   57 1   
    57   57   58 1   
    58   57   65 1   
    59   58   59 1   
    60   58   61 1   
    61   58   66 1   
    62   59   60 2   
    63   59   69 1   
    64   61   62 1   
    65   61   67 1   
    66   61   68 1   
    67   62   63 1   
    68   62   64 1   
    69   69   70 1   
    70   69   73 1   
    71   70   71 1   
    72   70   74 1   
    73   70   75 1   
    74   71   72 2   
    75   71   76 1   
    76   76   77 1   
    77   76   85 1   
    78   77   78 1   
    79   77   80 1   
    80   77   86 1   
    81   78   79 2   
    82   78   93 1   
    83   80   81 1   
    84   80   87 1   
    85   80   88 1   
    86   81   82 1   
    87   81   89 1   
    88   81   90 1   
    89   82   83 1   
    90   82   84 2   
    91   83   91 1   
    92   83   92 1   
    93   93   94 1   
    94   93  100 1   
    95   94   95 1   
    96   94   97 1   
    97   94  101 1   
    98   95   96 2   
    99   95  109 1   
   100   97   98 1   
   101   97   99 1   
   102   97  102 1   
   103   98  103 1   
   104   98  104 1   
   105   98  105 1   
   106   99  106 1   
   107   99  107 1   
   108   99  108 1   
   109  109  110 1   
   110  109  117 1   
   111  110  111 1   
   112  110  113 1   
   113  110  118 1   
   114  111  112 2   
   115  111  123 1   
   116  113  114 1   
   117  113  119 1   
   118  113  120 1   
   119  114  115 1   
   120  114  116 2   
   121  115  121 1   
   122  115  122 1   
   123  123  124 1   
   124  123  135 1   
   125  124  125 1   
   126  124  127 1   
   127  124  136 1   
   128  125  126 2   
   129  125  144 1   
   130  127  128 1   
   131  127  137 1   
   132  127  138 1   
   133  128  129 ar  
   134  128  130 ar  
   135  129  131 ar  
   136  129  139 1   
   137  130  132 ar  
   138  130  140 1   
   139  131  133 ar  
   140  131  141 1   
   141  132  133 ar  
   142  132  142 1   
   143  133  134 1   
   144  134  143 1   
   145  144  145 1   
   146  144  153 1   
   147  145  146 1   
   148  145  148 1   
   149  145  154 1   
   150  146  147 2   
   151  146  159 1   
   152  148  149 1   
   153  148  155 1   
   154  148  156 1   
   155  149  150 1   
   156  149  157 1   
   157  149  158 1   
   158  150  151 1   
   159  150  152 1   
   160  159  160 1   
   161  159  168 1   
   162  160  161 1   
   163  160  163 1   
   164  160  169 1   
   165  161  162 2   
   166  161  174 1   
   167  163  164 1   
   168  163  170 1   
   169  163  171 1   
   170  164  165 1   
   171  164  172 1   
   172  164  173 1   
   173  165  166 1   
   174  165  167 1   
   175  174  175 1   
   176  174  179 1   
   177  175  176 1   
   178  175  177 1   
   179  175  178 1   
   180  181  182 1   
   181  181  183 1   
   182  184  185 1   
   183  184  186 1   
@<TRIPOS>SUBSTRUCTURE
     1 MOL         1 TEMP              0 ****  ****    0 ROOT
