@<TRIPOS>MOLECULE
MOL
  182   178     1     0     0
SMALL
resp


@<TRIPOS>ATOM
      1 C1          1.9370    3.2540    5.6520 c3        1 MOL     -0.286069
      2 C2          1.3920    2.9560    4.2280 c         1 MOL      0.719726
      3 O1          2.0690    3.0960    3.1930 o         1 MOL     -0.632785
      4 H1          1.4180    4.1180    6.0660 hc        1 MOL      0.074666
      5 H2          1.7710    2.3900    6.2950 hc        1 MOL      0.074666
      6 H3          3.0050    3.4660    5.5960 hc        1 MOL      0.074666
      7 N1          0.0470    2.7100    4.1660 n         1 MOL     -0.645956
      8 C3         -0.5620    2.3990    2.8470 c3        1 MOL      0.106213
      9 C4         -0.6660    3.7360    2.0440 c         1 MOL      0.642258
     10 O2         -1.3440    4.6940    2.4700 o         1 MOL     -0.596133
     11 C5         -1.7810    1.4870    3.0230 c3        1 MOL     -0.052365
     12 C6         -2.5740    1.2330    1.7230 c         1 MOL      0.646584
     13 O3         -2.1650    1.7410    0.6580 o         1 MOL     -0.687564
     14 O4         -3.7000    0.7390    1.7790 o         1 MOL     -0.687564
     15 H4         -0.4250    2.4850    5.0240 hn        1 MOL      0.335537
     16 H5          0.1560    1.8070    2.2670 h1        1 MOL      0.003085
     17 H6         -2.5730    1.8090    3.7000 hc        1 MOL      0.024820
     18 H7         -1.4020    0.5290    3.3880 hc        1 MOL      0.024820
     19 N2         -0.0330    3.8480    0.8660 n         1 MOL     -0.235475
     20 C7          0.0990    5.1530    0.1590 c3        1 MOL     -0.129486
     21 C8         -1.1270    5.5540   -0.6640 c         1 MOL      0.486410
     22 O5         -1.2480    6.7540   -0.9330 o         1 MOL     -0.559753
     23 C9          1.3750    5.1210   -0.8200 c3        1 MOL     -0.089184
     24 C10         2.6840    5.2720   -0.0540 c3        1 MOL     -0.085047
     25 C11         3.9140    5.4970   -0.8400 c3        1 MOL      0.022461
     26 C12         5.1180    6.0710   -0.1090 c3        1 MOL      0.078376
     27 N3          6.2220    6.2940   -1.0520 n4        1 MOL     -0.361960
     28 H8          0.3220    2.9750    0.4890 hn        1 MOL      0.169690
     29 H9          0.2210    6.0000    0.8350 h1        1 MOL      0.134691
     30 H10         1.2380    5.9350   -1.5500 hc        1 MOL      0.046994
     31 H11         1.3470    4.1850   -1.3820 hc        1 MOL      0.046994
     32 H12         2.9490    4.3970    0.5510 hc        1 MOL      0.075616
     33 H13         2.4500    6.0520    0.6700 hc        1 MOL      0.075616
     34 H14         3.6640    6.1740   -1.6500 hc        1 MOL      0.002068
     35 H15         4.2130    4.6080   -1.3890 hc        1 MOL      0.002068
     36 H16         5.3820    5.3070    0.6140 hx        1 MOL      0.071730
     37 H17         4.8930    7.0000    0.4240 hx        1 MOL      0.071730
     38 H18         6.9280    6.8880   -0.6400 hn        1 MOL      0.328528
     39 H19         6.7130    5.4600   -1.3500 hn        1 MOL      0.328528
     40 H20         5.8360    6.8120   -1.8180 hn        1 MOL      0.328528
     41 N4         -2.0010    4.6380   -1.1150 n         1 MOL     -0.284688
     42 C13        -3.3770    4.9410   -1.7610 c3        1 MOL     -0.014268
     43 C14        -4.5770    4.5690   -0.8410 c         1 MOL      0.485275
     44 O6         -5.6200    5.1580   -0.9610 o         1 MOL     -0.547794
     45 C15        -3.6850    4.2650   -3.1700 c3        1 MOL     -0.337177
     46 C16        -3.3590    2.7870   -3.2250 c         1 MOL      0.888219
     47 O7         -3.5130    2.2330   -4.3440 o         1 MOL     -0.754876
     48 O8         -3.0210    2.1490   -2.2160 o         1 MOL     -0.754876
     49 H21        -1.6640    3.6870   -1.1980 hn        1 MOL      0.228294
     50 H22        -3.4920    6.0270   -1.8370 h1        1 MOL      0.118791
     51 H23        -3.0830    4.7360   -3.9380 hc        1 MOL      0.100311
     52 H24        -4.7370    4.4120   -3.4240 hc        1 MOL      0.100311
     53 N5         -4.4310    3.8120    0.2080 n         1 MOL     -0.177347
     54 C17        -5.4790    3.4130    1.1750 c3        1 MOL     -0.145228
     55 C18        -6.3410    2.3870    0.5230 c         1 MOL      0.468516
     56 O9         -7.5930    2.3890    0.8040 o         1 MOL     -0.590986
     57 H25        -3.5460    3.3800    0.4430 hn        1 MOL      0.153017
     58 H26        -6.0810    4.2700    1.4690 h1        1 MOL      0.112013
     59 H27        -5.0510    3.0470    2.1120 h1        1 MOL      0.112013
     60 N6         -5.8100    1.4990   -0.2460 n         1 MOL     -0.034820
     61 C19        -6.4950    0.3770   -0.9310 c3        1 MOL     -0.306556
     62 C20        -6.5760   -0.8820    0.0370 c         1 MOL      0.386959
     63 O10        -7.0470   -1.9430   -0.3950 o         1 MOL     -0.438967
     64 C21        -5.8070   -0.0250   -2.2980 c3        1 MOL     -0.038292
     65 C22        -4.4760   -0.7220   -2.1610 c         1 MOL      0.493118
     66 N7         -4.1260   -1.5010   -3.1110 n         1 MOL     -0.773535
     67 O11        -3.6890   -0.5840   -1.1900 o         1 MOL     -0.371332
     68 H28        -4.8310    1.6540   -0.4180 hn        1 MOL      0.074139
     69 H29        -7.5300    0.6520   -1.1220 h1        1 MOL      0.180912
     70 H30        -5.5810    0.8420   -2.9200 hc        1 MOL      0.084203
     71 H31        -6.5200   -0.5250   -2.9580 hc        1 MOL      0.084203
     72 H32        -4.7720   -1.8260   -3.8180 hn        1 MOL      0.380519
     73 H33        -3.2210   -1.9150   -2.9310 hn        1 MOL      0.380519
     74 N8         -6.0630   -0.7320    1.2690 n         1 MOL     -0.221934
     75 C23        -5.9780   -1.7830    2.2850 c3        1 MOL     -0.165346
     76 C24        -4.8260   -2.7780    2.2040 c         1 MOL      0.574291
     77 O12        -4.7700   -3.7420    2.8780 o         1 MOL     -0.568577
     78 H34        -5.6510    0.1570    1.5100 hn        1 MOL      0.265032
     79 H35        -6.9720   -2.2190    2.2310 h1        1 MOL      0.107688
     80 H36        -6.0260   -1.3780    3.2950 h1        1 MOL      0.107688
     81 N9         -3.8580   -2.5060    1.3100 n         1 MOL     -0.251142
     82 C25        -2.6790   -3.3510    1.1270 c3        1 MOL      0.253623
     83 C26        -1.3390   -2.5890    1.1310 c         1 MOL      0.461047
     84 O13        -1.2650   -1.6060    0.3600 o         1 MOL     -0.569354
     85 C27        -3.0050   -4.0620   -0.1750 c3        1 MOL     -0.013147
     86 C28        -4.2520   -4.9040   -0.2160 ca        1 MOL      0.203490
     87 C29        -5.3730   -4.4670   -0.9320 ca        1 MOL     -0.349617
     88 C30        -4.2650   -6.1820    0.3430 ca        1 MOL     -0.349617
     89 C31        -6.4910   -5.3010   -1.1160 ca        1 MOL     -0.072539
     90 C32        -5.4340   -6.9800    0.3910 ca        1 MOL     -0.072539
     91 C33        -6.4960   -6.5550   -0.4330 ca        1 MOL      0.191402
     92 O14        -7.5680   -7.3440   -0.6180 oh        1 MOL     -0.458520
     93 H37        -3.9200   -1.6030    0.8630 hn        1 MOL      0.059335
     94 H38        -2.6530   -4.0590    1.9590 h1        1 MOL     -0.007017
     95 H39        -2.1930   -4.7810   -0.2560 hc        1 MOL     -0.025432
     96 H40        -2.9990   -3.3800   -1.0310 hc        1 MOL     -0.025432
     97 H41        -5.2920   -3.5070   -1.4140 ha        1 MOL      0.154648
     98 H42        -3.4300   -6.5550    0.9220 ha        1 MOL      0.154648
     99 H43        -7.3180   -5.1060   -1.7850 ha        1 MOL      0.104297
    100 H44        -5.4860   -7.9850    0.7950 ha        1 MOL      0.104297
    101 H45        -7.4010   -8.2590   -0.3810 ho        1 MOL      0.349573
    102 N10        -0.2880   -3.0340    1.7330 n         1 MOL     -0.525589
    103 C34         1.1340   -2.5450    1.6500 c3        1 MOL      0.056231
    104 C35         1.9920   -3.4750    0.7820 c         1 MOL      0.606013
    105 O15         2.2360   -4.6190    1.1610 o         1 MOL     -0.542653
    106 C36         1.6230   -2.3360    3.1280 c3        1 MOL     -0.024778
    107 C37         0.6820   -1.3680    3.9070 c3        1 MOL      0.182418
    108 C38         3.0810   -1.8740    3.3170 c3        1 MOL     -0.025360
    109 C39         1.1780   -1.0320    5.3150 c3        1 MOL     -0.365234
    110 H46        -0.3180   -3.9770    2.0910 hn        1 MOL      0.313874
    111 H47         1.1380   -1.5260    1.2550 h1        1 MOL      0.069008
    112 H48         1.6000   -3.3330    3.5640 hc        1 MOL      0.005998
    113 H49        -0.3380   -1.7490    3.9020 hc        1 MOL     -0.003992
    114 H50         0.7630   -0.4610    3.3160 hc        1 MOL     -0.003992
    115 H51         3.7220   -2.4020    2.6160 hc        1 MOL      0.006774
    116 H52         3.1970   -0.8200    3.0590 hc        1 MOL      0.006774
    117 H53         3.5520   -2.1370    4.2640 hc        1 MOL      0.006774
    118 H54         0.3450   -0.4930    5.7640 hc        1 MOL      0.085835
    119 H55         1.3780   -1.9490    5.8720 hc        1 MOL      0.085835
    120 H56         2.1700   -0.5850    5.2950 hc        1 MOL      0.085835
    121 N11         2.3730   -2.9830   -0.4120 n         1 MOL     -0.469223
    122 C40         3.4560   -3.6880   -1.1870 c3        1 MOL      0.039901
    123 C41         4.8440   -3.5710   -0.6290 c         1 MOL      0.293502
    124 O16         5.0640   -2.9280    0.3730 o         1 MOL     -0.235264
    125 C42         3.4190   -3.0090   -2.5550 c3        1 MOL     -0.335873
    126 O17         3.9420   -1.7740   -2.6000 oh        1 MOL     -0.360841
    127 H57         2.0210   -2.1050   -0.7830 hn        1 MOL      0.349161
    128 H58         3.2600   -4.7620   -1.2590 h1        1 MOL      0.096291
    129 H59         2.3610   -2.9910   -2.8140 h1        1 MOL      0.139756
    130 H60         3.9390   -3.6020   -3.3080 h1        1 MOL      0.139756
    131 H61         3.4070   -1.3280   -3.2510 ho        1 MOL      0.381597
    132 N12         5.8080   -4.3030   -1.2540 n         1 MOL     -0.291889
    133 C43         7.1890   -4.3020   -0.7930 c3        1 MOL      0.002605
    134 C44         7.7710   -2.8610   -1.0730 c         1 MOL      0.467597
    135 O18         8.5430   -2.3370   -0.2690 o         1 MOL     -0.511674
    136 C45         7.9870   -5.3360   -1.6190 c3        1 MOL     -0.207631
    137 H62         5.5260   -4.8990   -2.0170 hn        1 MOL      0.252774
    138 H63         7.0940   -4.5570    0.2670 h1        1 MOL      0.114032
    139 H64         8.9590   -5.4930   -1.1490 hc        1 MOL      0.074123
    140 H65         7.4990   -6.3100   -1.6220 hc        1 MOL      0.074123
    141 H66         8.1350   -4.9980   -2.6460 hc        1 MOL      0.074123
    142 N13         7.3330   -2.1850   -2.1360 n         1 MOL     -0.324435
    143 C46         7.8440   -0.8780   -2.4480 c3        1 MOL      0.138030
    144 C47         7.2910    0.1240   -1.3580 c         1 MOL      0.386882
    145 O19         8.0060    0.9730   -0.9190 o         1 MOL     -0.507032
    146 C48         7.4650   -0.4680   -3.9420 c3        1 MOL     -0.309118
    147 H67         6.6410   -2.6370   -2.7160 hn        1 MOL      0.253960
    148 H68         8.9270   -0.7720   -2.3700 h1        1 MOL      0.079957
    149 H69         7.8370    0.5400   -4.1390 hc        1 MOL      0.082947
    150 H70         7.8590   -1.2920   -4.5390 hc        1 MOL      0.082947
    151 H71         6.3890   -0.4160   -4.1120 hc        1 MOL      0.082947
    152 N14         6.0210   -0.0280   -0.8630 n         1 MOL     -0.065966
    153 C49         5.4260    0.6810    0.2660 c3        1 MOL     -0.283984
    154 C50         6.1260    0.3280    1.5940 c         1 MOL      0.517230
    155 O20         6.3670    1.2080    2.3770 o         1 MOL     -0.567102
    156 C51         4.0000    0.3410    0.3320 c3        1 MOL     -0.042347
    157 C52         3.1570    1.0490   -0.7430 c3        1 MOL      0.104982
    158 C53         1.7180    0.5100   -0.6770 c         1 MOL      0.722105
    159 O21         1.4300   -0.4800   -1.3840 o         1 MOL     -0.748191
    160 O22         0.8070    1.0560   -0.0170 o         1 MOL     -0.748191
    161 H72         5.4640   -0.7690   -1.2450 hn        1 MOL     -0.014107
    162 H73         5.7020    1.7220    0.1130 h1        1 MOL      0.145021
    163 H74         3.4590    0.6200    1.2380 hc        1 MOL      0.097697
    164 H75         3.7570   -0.7170    0.2350 hc        1 MOL      0.097697
    165 H76         3.5130    0.8660   -1.7670 hc        1 MOL     -0.061745
    166 H77         3.1840    2.1220   -0.5870 hc        1 MOL     -0.061745
    167 N15         6.5350   -0.9010    1.6960 n         1 MOL      0.021516
    168 C54         7.2550   -1.3830    2.9220 c3        1 MOL     -0.359649
    169 H78         6.9660   -0.7700    3.7760 h1        1 MOL      0.127796
    170 H79         6.9890   -2.4220    3.1140 h1        1 MOL      0.127796
    171 H80         8.3300   -1.3050    2.7670 h1        1 MOL      0.127796
    172 H81         6.1380   -1.6040    1.0810 hn        1 MOL      0.019802
    173 Ca1        -1.3360    0.4290   -1.3830 Ca        1 MOL      1.822897
    174 O23        -0.0670    2.4660   -2.6900 oh        1 MOL     -0.917554
    175 H82        -0.4970    2.8860   -3.4250 ho        1 MOL      0.425065
    176 H83         0.8640    2.6840   -2.8010 ho        1 MOL      0.425065
    177 O24        -1.6380    0.4660   -4.3640 oh        1 MOL     -0.917554
    178 H84        -1.6050    0.0160   -5.2100 ho        1 MOL      0.425065
    179 H85        -2.2910    1.1530   -4.4800 ho        1 MOL      0.425065
    180 O25        -1.2100   -1.8620   -2.6030 oh        1 MOL     -0.917554
    181 H86        -1.1240   -1.9070   -3.5590 ho        1 MOL      0.425065
    182 H87        -0.8490   -2.7020   -2.2930 ho        1 MOL      0.425065
@<TRIPOS>BOND
     1    1    2 1   
     2    1    4 1   
     3    1    5 1   
     4    1    6 1   
     5    2    3 2   
     6    2    7 1   
     7    7    8 1   
     8    7   15 1   
     9    8    9 1   
    10    8   11 1   
    11    8   16 1   
    12    9   10 2   
    13    9   19 1   
    14   11   12 1   
    15   11   17 1   
    16   11   18 1   
    17   12   13 1   
    18   12   14 1   
    19   19   20 1   
    20   19   28 1   
    21   20   21 1   
    22   20   23 1   
    23   20   29 1   
    24   21   22 2   
    25   21   41 1   
    26   23   24 1   
    27   23   30 1   
    28   23   31 1   
    29   24   25 1   
    30   24   32 1   
    31   24   33 1   
    32   25   26 1   
    33   25   34 1   
    34   25   35 1   
    35   26   27 1   
    36   26   36 1   
    37   26   37 1   
    38   27   38 1   
    39   27   39 1   
    40   27   40 1   
    41   41   42 1   
    42   41   49 1   
    43   42   43 1   
    44   42   45 1   
    45   42   50 1   
    46   43   44 2   
    47   43   53 1   
    48   45   46 1   
    49   45   51 1   
    50   45   52 1   
    51   46   47 1   
    52   46   48 1   
    53   53   54 1   
    54   53   57 1   
    55   54   55 1   
    56   54   58 1   
    57   54   59 1   
    58   55   56 2   
    59   55   60 1   
    60   60   61 1   
    61   60   68 1   
    62   61   62 1   
    63   61   64 1   
    64   61   69 1   
    65   62   63 2   
    66   62   74 1   
    67   64   65 1   
    68   64   70 1   
    69   64   71 1   
    70   65   66 1   
    71   65   67 2   
    72   66   72 1   
    73   66   73 1   
    74   74   75 1   
    75   74   78 1   
    76   75   76 1   
    77   75   79 1   
    78   75   80 1   
    79   76   77 2   
    80   76   81 1   
    81   81   82 1   
    82   81   93 1   
    83   82   83 1   
    84   82   85 1   
    85   82   94 1   
    86   83   84 2   
    87   83  102 1   
    88   85   86 1   
    89   85   95 1   
    90   85   96 1   
    91   86   87 ar  
    92   86   88 ar  
    93   87   89 ar  
    94   87   97 1   
    95   88   90 ar  
    96   88   98 1   
    97   89   91 ar  
    98   89   99 1   
    99   90   91 ar  
   100   90  100 1   
   101   91   92 1   
   102   92  101 1   
   103  102  103 1   
   104  102  110 1   
   105  103  104 1   
   106  103  106 1   
   107  103  111 1   
   108  104  105 2   
   109  104  121 1   
   110  106  107 1   
   111  106  108 1   
   112  106  112 1   
   113  107  109 1   
   114  107  113 1   
   115  107  114 1   
   116  108  115 1   
   117  108  116 1   
   118  108  117 1   
   119  109  118 1   
   120  109  119 1   
   121  109  120 1   
   122  121  122 1   
   123  121  127 1   
   124  122  123 1   
   125  122  125 1   
   126  122  128 1   
   127  123  124 2   
   128  123  132 1   
   129  125  126 1   
   130  125  129 1   
   131  125  130 1   
   132  126  131 1   
   133  132  133 1   
   134  132  137 1   
   135  133  134 1   
   136  133  136 1   
   137  133  138 1   
   138  134  135 2   
   139  134  142 1   
   140  136  139 1   
   141  136  140 1   
   142  136  141 1   
   143  142  143 1   
   144  142  147 1   
   145  143  144 1   
   146  143  146 1   
   147  143  148 1   
   148  144  145 2   
   149  144  152 1   
   150  146  149 1   
   151  146  150 1   
   152  146  151 1   
   153  152  153 1   
   154  152  161 1   
   155  153  154 1   
   156  153  156 1   
   157  153  162 1   
   158  154  155 2   
   159  154  167 1   
   160  156  157 1   
   161  156  163 1   
   162  156  164 1   
   163  157  158 1   
   164  157  165 1   
   165  157  166 1   
   166  158  159 1   
   167  158  160 1   
   168  167  168 1   
   169  167  172 1   
   170  168  169 1   
   171  168  170 1   
   172  168  171 1   
   173  174  175 1   
   174  174  176 1   
   175  177  178 1   
   176  177  179 1   
   177  180  181 1   
   178  180  182 1   
@<TRIPOS>SUBSTRUCTURE
     1 MOL         1 TEMP              0 ****  ****    0 ROOT
