@<TRIPOS>MOLECULE
MOL
  179   176     1     0     0
SMALL
resp


@<TRIPOS>ATOM
      1 C1          1.8970    3.0160    5.4050 c3        1 MOL     -0.351370
      2 C2          1.3460    2.7390    3.9660 c         1 MOL      0.744867
      3 O1          2.1940    2.5440    3.1110 o         1 MOL     -0.608061
      4 H1          2.9800    3.1300    5.3630 hc        1 MOL      0.087697
      5 H2          1.4520    3.9310    5.7960 hc        1 MOL      0.087697
      6 H3          1.6450    2.1810    6.0590 hc        1 MOL      0.087697
      7 N1          0.0300    2.8150    3.7750 n         1 MOL     -0.631860
      8 C3         -0.6060    2.5990    2.4510 c3        1 MOL      0.042062
      9 C4         -0.7540    3.8720    1.7590 c         1 MOL      0.652301
     10 O2         -1.4600    4.7690    2.1610 o         1 MOL     -0.593879
     11 C5         -1.9480    1.8350    2.7000 c3        1 MOL     -0.004618
     12 C6         -2.7880    1.5780    1.4330 c         1 MOL      0.663156
     13 O3         -2.3280    1.9410    0.3330 o         1 MOL     -0.663623
     14 O4         -3.8920    1.0240    1.5930 o         1 MOL     -0.663623
     15 H4         -0.5730    2.7060    4.5790 hn        1 MOL      0.345147
     16 H5         -0.0290    1.9680    1.7680 h1        1 MOL     -0.107496
     17 H6         -2.5060    2.3740    3.4690 hc        1 MOL      0.010648
     18 H7         -1.7410    0.8760    3.1770 hc        1 MOL      0.010648
     19 N2         -0.1470    4.1250    0.6250 n         1 MOL     -0.354639
     20 C7         -0.0580    5.4600   -0.0330 c3        1 MOL     -0.165088
     21 C8         -1.2780    5.7670   -0.8830 c         1 MOL      0.642974
     22 O5         -1.3630    6.8890   -1.3410 o         1 MOL     -0.618834
     23 C9          1.2070    5.3680   -0.8410 c3        1 MOL      0.005573
     24 C10         2.4120    5.3410    0.1070 c3        1 MOL      0.079707
     25 C11         3.7240    5.6010   -0.5810 c3        1 MOL     -0.225630
     26 C12         4.9450    5.5920    0.3620 c3        1 MOL      0.326540
     27 N3          6.0350    6.4410   -0.1090 n4        1 MOL     -0.428750
     28 H8          0.3000    3.3320    0.1900 hn        1 MOL      0.400995
     29 H9         -0.0040    6.3020    0.6550 h1        1 MOL      0.121581
     30 H10         1.2680    6.1910   -1.5580 hc        1 MOL      0.028374
     31 H11         1.2140    4.4400   -1.4250 hc        1 MOL      0.028374
     32 H12         2.4960    4.4080    0.6650 hc        1 MOL      0.008320
     33 H13         2.2560    6.1810    0.7860 hc        1 MOL      0.008320
     34 H14         3.6350    6.5590   -1.1040 hc        1 MOL      0.049252
     35 H15         3.9330    4.7920   -1.2780 hc        1 MOL      0.049252
     36 H16         5.3540    4.5910    0.4660 hx        1 MOL      0.017867
     37 H17         4.6500    5.9130    1.3580 hx        1 MOL      0.017867
     38 H18         6.7720    6.4710    0.5930 hn        1 MOL      0.330987
     39 H19         6.3490    6.0990   -1.0030 hn        1 MOL      0.330987
     40 H20         5.7880    7.4030   -0.2920 hn        1 MOL      0.330987
     41 N4         -2.2240    4.8820   -0.9980 n         1 MOL     -0.191605
     42 C13        -3.4530    5.0550   -1.8570 c3        1 MOL      0.021971
     43 C14        -4.7500    4.6460   -1.1460 c         1 MOL      0.384292
     44 O6         -5.8340    4.9360   -1.6120 o         1 MOL     -0.507834
     45 C15        -3.2290    4.1850   -3.1930 c3        1 MOL     -0.231665
     46 C16        -2.7150    2.7840   -2.7570 c         1 MOL      0.696700
     47 O7         -3.4750    1.8410   -2.4670 o         1 MOL     -0.718748
     48 O8         -1.4860    2.6780   -2.6460 o         1 MOL     -0.718748
     49 H21        -2.0720    4.0790   -0.3930 hn        1 MOL     -0.074725
     50 H22        -3.4140    6.1180   -2.0940 h1        1 MOL      0.107565
     51 H23        -2.4980    4.6780   -3.8370 hc        1 MOL      0.072898
     52 H24        -4.1960    4.1370   -3.6820 hc        1 MOL      0.072898
     53 N5         -4.6300    3.9960    0.0010 n         1 MOL     -0.192124
     54 C17        -5.7450    3.5790    0.9200 c3        1 MOL     -0.201081
     55 C18        -6.5420    2.3770    0.4400 c         1 MOL      0.554711
     56 O9         -7.6860    2.1860    0.8240 o         1 MOL     -0.579325
     57 H25        -3.7000    3.8630    0.3550 hn        1 MOL      0.243960
     58 H26        -6.4120    4.4330    1.0190 h1        1 MOL      0.114976
     59 H27        -5.2970    3.4500    1.9110 h1        1 MOL      0.114976
     60 N6         -5.9870    1.5860   -0.4750 n         1 MOL     -0.195590
     61 C19        -6.6570    0.3140   -0.9940 c3        1 MOL     -0.202598
     62 C20        -6.5820   -0.8980   -0.0310 c         1 MOL      0.261660
     63 O10        -7.0410   -1.9670   -0.4080 o         1 MOL     -0.407611
     64 C21        -6.0980   -0.1540   -2.3560 c3        1 MOL     -0.164107
     65 C22        -4.7910   -0.9970   -2.2550 c         1 MOL      0.423420
     66 N7         -4.7400   -2.0300   -3.0290 n         1 MOL     -0.554476
     67 O11        -3.8680   -0.8120   -1.4440 o         1 MOL     -0.448762
     68 H28        -4.9980    1.7060   -0.6070 hn        1 MOL      0.240604
     69 H29        -7.7100    0.4990   -1.1580 h1        1 MOL      0.186314
     70 H30        -5.8090    0.7270   -2.9270 hc        1 MOL      0.103460
     71 H31        -6.8150   -0.6270   -3.0240 hc        1 MOL      0.103460
     72 H32        -5.4320   -2.1550   -3.7450 hn        1 MOL      0.306660
     73 H33        -3.8900   -2.5680   -3.0180 hn        1 MOL      0.306660
     74 N8         -5.9080   -0.7230    1.1560 n         1 MOL      0.000859
     75 C23        -5.8940   -1.6010    2.3550 c3        1 MOL     -0.338578
     76 C24        -4.7300   -2.6300    2.3370 c         1 MOL      0.611419
     77 O12        -4.8380   -3.6790    3.0320 o         1 MOL     -0.589167
     78 H34        -5.4110    0.1570    1.2100 hn        1 MOL      0.171794
     79 H35        -6.8570   -2.1060    2.3690 h1        1 MOL      0.142775
     80 H36        -5.8370   -0.9180    3.2060 h1        1 MOL      0.142775
     81 N9         -3.7330   -2.4260    1.5550 n         1 MOL     -0.420095
     82 C25        -2.6170   -3.2770    1.3510 c3        1 MOL      0.465032
     83 C26        -1.3870   -2.4060    1.2330 c         1 MOL      0.284846
     84 O13        -1.4940   -1.2490    0.7900 o         1 MOL     -0.492978
     85 C27        -2.7900   -4.1860    0.1190 c3        1 MOL     -0.067079
     86 C28        -4.0600   -5.0620    0.0450 ca        1 MOL      0.398473
     87 C29        -5.2060   -4.5100   -0.4970 ca        1 MOL     -0.474801
     88 C30        -3.9120   -6.4590    0.3310 ca        1 MOL     -0.474801
     89 C31        -6.4060   -5.3020   -0.6050 ca        1 MOL     -0.042093
     90 C32        -5.0550   -7.2460    0.1790 ca        1 MOL     -0.042093
     91 C33        -6.2740   -6.6510   -0.3230 ca        1 MOL      0.139972
     92 O14        -7.3650   -7.3380   -0.3330 oh        1 MOL     -0.393736
     93 H37        -3.6820   -1.4970    1.1570 hn        1 MOL      0.195959
     94 H38        -2.4440   -3.8780    2.2380 h1        1 MOL     -0.059918
     95 H39        -1.9890   -4.9220    0.1240 hc        1 MOL     -0.039671
     96 H40        -2.7480   -3.5700   -0.7770 hc        1 MOL     -0.039671
     97 H41        -5.1620   -3.4770   -0.7910 ha        1 MOL      0.193781
     98 H42        -2.9880   -6.8840    0.7050 ha        1 MOL      0.193781
     99 H43        -7.3360   -4.9850   -1.0550 ha        1 MOL      0.103366
    100 H44        -5.1180   -8.2470    0.5810 ha        1 MOL      0.103366
    101 H45        -7.1520   -8.2760   -0.2940 ho        1 MOL      0.326719
    102 N10        -0.1800   -2.9960    1.4660 n         1 MOL     -0.336750
    103 C34         1.1290   -2.2870    1.3040 c3        1 MOL     -0.010405
    104 C35         1.8680   -3.3170    0.4460 c         1 MOL      0.466564
    105 O15         1.9080   -4.5070    0.8010 o         1 MOL     -0.523600
    106 C36         1.9040   -1.9870    2.6440 c3        1 MOL      0.211546
    107 C37         1.8850   -3.0750    3.6920 c3        1 MOL     -0.027213
    108 C38         1.3120   -0.6910    3.1650 c3        1 MOL     -0.261506
    109 C39         2.7950   -2.7270    4.8130 c3        1 MOL     -0.103089
    110 H46        -0.1170   -3.8750    1.9610 hn        1 MOL      0.242088
    111 H47         0.9230   -1.3210    0.8390 h1        1 MOL      0.088266
    112 H48         2.9170   -1.7260    2.3490 hc        1 MOL     -0.060047
    113 H49         2.2770   -3.9630    3.1890 hc        1 MOL      0.027792
    114 H50         0.9170   -3.2530    4.1650 hc        1 MOL      0.027792
    115 H51         1.9470   -0.2560    3.9480 hc        1 MOL      0.080632
    116 H52         1.2100    0.0590    2.3700 hc        1 MOL      0.080632
    117 H53         0.3260   -0.8670    3.6040 hc        1 MOL      0.080632
    118 H54         2.3530   -2.0260    5.5280 hc        1 MOL      0.022588
    119 H55         3.0350   -3.6290    5.3680 hc        1 MOL      0.022588
    120 H56         3.7650   -2.3770    4.4690 hc        1 MOL      0.022588
    121 N11         2.4340   -2.8630   -0.7130 n         1 MOL     -0.429142
    122 C40         3.4330   -3.6180   -1.3860 c3        1 MOL      0.168248
    123 C41         4.8620   -3.3840   -0.8480 c         1 MOL      0.291990
    124 O16         5.0540   -2.6470    0.1040 o         1 MOL     -0.263370
    125 C42         3.4430   -3.3020   -2.8530 c3        1 MOL     -0.160327
    126 O17         3.8370   -1.9500   -3.1580 oh        1 MOL     -0.511284
    127 H57         2.3170   -1.8750   -0.8520 hn        1 MOL      0.314132
    128 H58         3.2890   -4.6950   -1.3610 h1        1 MOL      0.058282
    129 H59         2.4630   -3.5480   -3.2620 h1        1 MOL      0.099721
    130 H60         4.1410   -3.9720   -3.3430 h1        1 MOL      0.099721
    131 H61         3.1040   -1.5830   -3.6530 ho        1 MOL      0.390528
    132 N12         5.8780   -4.1420   -1.3130 n         1 MOL     -0.339516
    133 C43         7.2250   -4.1120   -0.8080 c3        1 MOL      0.053173
    134 C44         7.8130   -2.7030   -0.9210 c         1 MOL      0.492175
    135 O18         8.3890   -2.1830    0.0260 o         1 MOL     -0.498339
    136 C45         7.9880   -5.1310   -1.6500 c3        1 MOL     -0.230307
    137 H62         5.7410   -4.8770   -1.9890 hn        1 MOL      0.265760
    138 H63         7.2320   -4.4740    0.2190 h1        1 MOL      0.098454
    139 H64         9.0390   -5.1950   -1.3690 hc        1 MOL      0.072459
    140 H65         7.5260   -6.1150   -1.6280 hc        1 MOL      0.072459
    141 H66         8.0220   -4.8800   -2.7060 hc        1 MOL      0.072459
    142 N13         7.6130   -2.1120   -2.0810 n         1 MOL     -0.390711
    143 C46         7.8480   -0.6910   -2.3510 c3        1 MOL      0.208691
    144 C47         7.3040    0.3000   -1.3010 c         1 MOL      0.267420
    145 O19         7.9410    1.2350   -0.8980 o         1 MOL     -0.497800
    146 C48         7.2370   -0.4790   -3.7900 c3        1 MOL     -0.350919
    147 H67         7.3370   -2.5580   -2.9420 hn        1 MOL      0.261795
    148 H68         8.9110   -0.5040   -2.4900 h1        1 MOL      0.055802
    149 H69         6.9730    0.5640   -3.9780 hc        1 MOL      0.093301
    150 H70         7.9900   -0.8470   -4.4870 hc        1 MOL      0.093301
    151 H71         6.2470   -0.9210   -3.8690 hc        1 MOL      0.093301
    152 N14         6.0870    0.0970   -0.8250 n         1 MOL     -0.075580
    153 C49         5.4300    0.8600    0.2350 c3        1 MOL     -0.168372
    154 C50         6.0690    0.5470    1.5740 c         1 MOL      0.466878
    155 O20         6.2880    1.4410    2.3760 o         1 MOL     -0.563261
    156 C51         3.9360    0.5630    0.2010 c3        1 MOL      0.014975
    157 C52         3.2000    1.3680   -0.8940 c3        1 MOL      0.080623
    158 C53         1.7140    0.9820   -0.9660 c         1 MOL      0.676737
    159 O21         0.7510    1.7470   -0.6360 o         1 MOL     -0.762184
    160 O22         1.3940   -0.1970   -1.2750 o         1 MOL     -0.762184
    161 H72         5.5440   -0.6150   -1.2930 hn        1 MOL      0.191432
    162 H73         5.6130    1.8990   -0.0700 h1        1 MOL      0.113321
    163 H74         3.5300    0.7590    1.1870 hc        1 MOL      0.058487
    164 H75         3.8870   -0.5010   -0.0270 hc        1 MOL      0.058487
    165 H76         3.6990    1.1090   -1.8180 hc        1 MOL     -0.050502
    166 H77         3.3880    2.4350   -0.8420 hc        1 MOL     -0.050502
    167 N15         6.4810   -0.7270    1.7860 n         1 MOL      0.089232
    168 C54         7.0130   -1.3230    2.9680 c3        1 MOL     -0.344826
    169 H78         8.0700   -1.0720    3.0570 h1        1 MOL      0.119508
    170 H79         6.4760   -0.9450    3.8390 h1        1 MOL      0.119508
    171 H80         6.9000   -2.4050    2.9120 h1        1 MOL      0.119508
    172 H81         6.1950   -1.3480    1.0410 hn        1 MOL     -0.062544
    173 Ca1        -1.3560    0.3490   -1.3830 Ca        1 MOL      1.751062
    174 O23        -1.3210   -1.9800   -2.5230 oh        1 MOL     -0.836519
    175 H82        -1.7240   -2.0870   -3.3920 ho        1 MOL      0.407464
    176 H83        -1.1760   -2.8690   -2.2140 ho        1 MOL      0.407464
    177 O24        -1.1230    0.1520   -4.1120 oh        1 MOL     -0.836519
    178 H84        -0.8640    1.0340   -4.3890 ho        1 MOL      0.407464
    179 H85        -0.7700   -0.4240   -4.7930 ho        1 MOL      0.407464
@<TRIPOS>BOND
     1    1    2 1   
     2    1    4 1   
     3    1    5 1   
     4    1    6 1   
     5    2    3 2   
     6    2    7 1   
     7    7    8 1   
     8    7   15 1   
     9    8    9 1   
    10    8   11 1   
    11    8   16 1   
    12    9   10 2   
    13    9   19 1   
    14   11   12 1   
    15   11   17 1   
    16   11   18 1   
    17   12   13 1   
    18   12   14 1   
    19   19   20 1   
    20   19   28 1   
    21   20   21 1   
    22   20   23 1   
    23   20   29 1   
    24   21   22 2   
    25   21   41 1   
    26   23   24 1   
    27   23   30 1   
    28   23   31 1   
    29   24   25 1   
    30   24   32 1   
    31   24   33 1   
    32   25   26 1   
    33   25   34 1   
    34   25   35 1   
    35   26   27 1   
    36   26   36 1   
    37   26   37 1   
    38   27   38 1   
    39   27   39 1   
    40   27   40 1   
    41   41   42 1   
    42   41   49 1   
    43   42   43 1   
    44   42   45 1   
    45   42   50 1   
    46   43   44 2   
    47   43   53 1   
    48   45   46 1   
    49   45   51 1   
    50   45   52 1   
    51   46   47 1   
    52   46   48 1   
    53   53   54 1   
    54   53   57 1   
    55   54   55 1   
    56   54   58 1   
    57   54   59 1   
    58   55   56 2   
    59   55   60 1   
    60   60   61 1   
    61   60   68 1   
    62   61   62 1   
    63   61   64 1   
    64   61   69 1   
    65   62   63 2   
    66   62   74 1   
    67   64   65 1   
    68   64   70 1   
    69   64   71 1   
    70   65   66 1   
    71   65   67 2   
    72   66   72 1   
    73   66   73 1   
    74   74   75 1   
    75   74   78 1   
    76   75   76 1   
    77   75   79 1   
    78   75   80 1   
    79   76   77 2   
    80   76   81 1   
    81   81   82 1   
    82   81   93 1   
    83   82   83 1   
    84   82   85 1   
    85   82   94 1   
    86   83   84 2   
    87   83  102 1   
    88   85   86 1   
    89   85   95 1   
    90   85   96 1   
    91   86   87 ar  
    92   86   88 ar  
    93   87   89 ar  
    94   87   97 1   
    95   88   90 ar  
    96   88   98 1   
    97   89   91 ar  
    98   89   99 1   
    99   90   91 ar  
   100   90  100 1   
   101   91   92 1   
   102   92  101 1   
   103  102  103 1   
   104  102  110 1   
   105  103  104 1   
   106  103  106 1   
   107  103  111 1   
   108  104  105 2   
   109  104  121 1   
   110  106  107 1   
   111  106  108 1   
   112  106  112 1   
   113  107  109 1   
   114  107  113 1   
   115  107  114 1   
   116  108  115 1   
   117  108  116 1   
   118  108  117 1   
   119  109  118 1   
   120  109  119 1   
   121  109  120 1   
   122  121  122 1   
   123  121  127 1   
   124  122  123 1   
   125  122  125 1   
   126  122  128 1   
   127  123  124 2   
   128  123  132 1   
   129  125  126 1   
   130  125  129 1   
   131  125  130 1   
   132  126  131 1   
   133  132  133 1   
   134  132  137 1   
   135  133  134 1   
   136  133  136 1   
   137  133  138 1   
   138  134  135 2   
   139  134  142 1   
   140  136  139 1   
   141  136  140 1   
   142  136  141 1   
   143  142  143 1   
   144  142  147 1   
   145  143  144 1   
   146  143  146 1   
   147  143  148 1   
   148  144  145 2   
   149  144  152 1   
   150  146  149 1   
   151  146  150 1   
   152  146  151 1   
   153  152  153 1   
   154  152  161 1   
   155  153  154 1   
   156  153  156 1   
   157  153  162 1   
   158  154  155 2   
   159  154  167 1   
   160  156  157 1   
   161  156  163 1   
   162  156  164 1   
   163  157  158 1   
   164  157  165 1   
   165  157  166 1   
   166  158  159 1   
   167  158  160 1   
   168  167  168 1   
   169  167  172 1   
   170  168  169 1   
   171  168  170 1   
   172  168  171 1   
   173  174  175 1   
   174  174  176 1   
   175  177  178 1   
   176  177  179 1   
@<TRIPOS>SUBSTRUCTURE
     1 MOL         1 TEMP              0 ****  ****    0 ROOT
