@<TRIPOS>MOLECULE
MOL
  179   176     1     0     0
SMALL
resp


@<TRIPOS>ATOM
      1 C1          0.4000    5.3770   -4.1760 c3        1 MOL     -0.430529
      2 C2          0.4860    4.4170   -3.0280 c         1 MOL      0.713984
      3 O1         -0.2070    4.5800   -2.0170 o         1 MOL     -0.578230
      4 H1         -0.1910    4.9330   -4.9770 hc        1 MOL      0.101779
      5 H2         -0.0770    6.3000   -3.8440 hc        1 MOL      0.101779
      6 H3          1.4020    5.5970   -4.5420 hc        1 MOL      0.101779
      7 N1          1.4750    3.5370   -3.0500 n         1 MOL     -0.527010
      8 C3          1.9340    2.7420   -1.9250 c3        1 MOL      0.046505
      9 C4          3.0750    3.5810   -1.2910 c         1 MOL      0.477167
     10 O2          4.2510    3.3160   -1.5600 o         1 MOL     -0.497584
     11 C5          2.3480    1.3180   -2.3520 c3        1 MOL      0.008566
     12 C6          2.8110    0.3640   -1.2210 c         1 MOL      0.644818
     13 O3          2.2850    0.5480   -0.1050 o         1 MOL     -0.711653
     14 O4          3.7330   -0.4320   -1.5780 o         1 MOL     -0.711653
     15 H4          2.0330    3.3680   -3.8780 hn        1 MOL      0.315104
     16 H5          1.2050    2.6560   -1.1160 h1        1 MOL      0.086825
     17 H6          3.1390    1.4140   -3.0910 hc        1 MOL      0.001532
     18 H7          1.5340    0.8700   -2.9350 hc        1 MOL      0.001532
     19 N2          2.7030    4.6620   -0.6300 n         1 MOL     -0.350714
     20 C7          3.6870    5.6730   -0.0720 c3        1 MOL     -0.102355
     21 C8          4.6410    5.1010    1.0060 c         1 MOL      0.489961
     22 O5          5.7940    5.4300    1.0740 o         1 MOL     -0.535499
     23 C9          2.9490    6.9510    0.3890 c3        1 MOL     -0.058676
     24 C10         2.3130    7.6530   -0.8120 c3        1 MOL      0.021490
     25 C11         1.6770    8.9510   -0.4600 c3        1 MOL      0.000879
     26 C12         0.9330    9.6130   -1.6100 c3        1 MOL      0.053858
     27 N3          1.8010   10.4180   -2.4870 n4        1 MOL     -0.636083
     28 H8          1.7360    4.9490   -0.6480 hn        1 MOL      0.268907
     29 H9          4.2520    6.0240   -0.9360 h1        1 MOL      0.102275
     30 H10         3.7130    7.6390    0.7400 hc        1 MOL      0.061029
     31 H11         2.3330    6.7050    1.2500 hc        1 MOL      0.061029
     32 H12         1.4270    7.1470   -1.1940 hc        1 MOL      0.004957
     33 H13         2.9880    7.6440   -1.6640 hc        1 MOL      0.004957
     34 H14         2.4700    9.6300   -0.1220 hc        1 MOL      0.027489
     35 H15         0.9880    8.8330    0.3780 hc        1 MOL      0.027489
     36 H16         0.2000   10.3080   -1.1990 hx        1 MOL      0.100543
     37 H17         0.2980    8.9030   -2.1300 hx        1 MOL      0.100543
     38 H18         2.7080    9.9760   -2.5240 hn        1 MOL      0.406520
     39 H19         1.3090   10.3980   -3.3770 hn        1 MOL      0.406520
     40 H20         1.8800   11.3360   -2.0680 hn        1 MOL      0.406520
     41 N4          4.2690    4.0390    1.7860 n         1 MOL     -0.353694
     42 C13         5.2060    3.2500    2.6360 c3        1 MOL      0.037215
     43 C14         5.9520    2.1920    1.7950 c         1 MOL      0.451007
     44 O6          6.9510    1.6600    2.3230 o         1 MOL     -0.545697
     45 C15         4.4220    2.5930    3.7900 c3        1 MOL     -0.320475
     46 C16         3.3160    1.7160    3.1440 c         1 MOL      0.726963
     47 O7          3.4360    0.4860    3.3200 o         1 MOL     -0.714411
     48 O8          2.3280    2.2280    2.6160 o         1 MOL     -0.714411
     49 H21         3.3470    3.6710    1.6080 hn        1 MOL      0.245410
     50 H22         5.9150    3.9340    3.0870 h1        1 MOL      0.109507
     51 H23         3.8930    3.3580    4.3660 hc        1 MOL      0.095605
     52 H24         5.0360    1.9430    4.4090 hc        1 MOL      0.095605
     53 N5          5.5210    1.9460    0.5230 n         1 MOL     -0.063869
     54 C17         6.4380    1.2390   -0.3610 c3        1 MOL     -0.225954
     55 C18         6.6530   -0.3000   -0.0350 c         1 MOL      0.515189
     56 O9          7.5810   -0.8440   -0.6230 o         1 MOL     -0.539082
     57 H25         4.6690    2.4140    0.2740 hn        1 MOL      0.132317
     58 H26         7.4240    1.7020   -0.3450 h1        1 MOL      0.120474
     59 H27         6.0790    1.3240   -1.3840 h1        1 MOL      0.120474
     60 N6          5.8220   -0.9280    0.8790 n         1 MOL     -0.199268
     61 C19         5.9830   -2.2810    1.4070 c3        1 MOL      0.042600
     62 C20         5.6180   -3.4330    0.4160 c         1 MOL      0.296717
     63 O10         5.9940   -4.5830    0.5550 o         1 MOL     -0.499693
     64 C21         5.1050   -2.5190    2.7120 c3        1 MOL     -0.243273
     65 C22         3.6150   -2.8730    2.3930 c         1 MOL      0.492014
     66 N7          3.1650   -4.0050    2.7650 n         1 MOL     -0.504997
     67 O11         2.8250   -2.1050    1.9100 o         1 MOL     -0.550019
     68 H28         4.9860   -0.4450    1.1650 hn        1 MOL      0.124234
     69 H29         7.0080   -2.5290    1.6870 h1        1 MOL      0.094442
     70 H30         5.1380   -1.5790    3.2670 hc        1 MOL      0.098949
     71 H31         5.4670   -3.3300    3.3350 hc        1 MOL      0.098949
     72 H32         3.7260   -4.6670    3.2710 hn        1 MOL      0.286145
     73 H33         2.1670   -4.0120    2.8640 hn        1 MOL      0.286145
     74 N8          5.0120   -3.0270   -0.6560 n         1 MOL     -0.105831
     75 C23         4.7810   -3.8880   -1.8100 c3        1 MOL     -0.249133
     76 C24         3.3390   -4.1990   -2.1810 c         1 MOL      0.612867
     77 O12         3.0170   -4.8160   -3.2060 o         1 MOL     -0.569855
     78 H34         4.8100   -2.0350   -0.7730 hn        1 MOL      0.282919
     79 H35         5.2350   -4.8560   -1.6010 h1        1 MOL      0.130020
     80 H36         5.2610   -3.5680   -2.7390 h1        1 MOL      0.130020
     81 N9          2.3810   -3.6730   -1.3630 n         1 MOL     -0.471899
     82 C25         0.9740   -4.1320   -1.3990 c3        1 MOL      0.236507
     83 C26         0.1010   -2.9550   -1.0390 c         1 MOL      0.646355
     84 O13         0.4530   -2.1330   -0.1630 o         1 MOL     -0.606705
     85 C27         0.8440   -5.3200   -0.4580 c3        1 MOL     -0.204361
     86 C28         1.8220   -6.4510   -0.7980 ca        1 MOL      0.337062
     87 C29         2.9360   -6.7300   -0.0290 ca        1 MOL     -0.319195
     88 C30         1.4470   -7.4320   -1.6940 ca        1 MOL     -0.319195
     89 C31         3.8630   -7.8010   -0.2960 ca        1 MOL     -0.193610
     90 C32         2.2960   -8.4580   -2.1070 ca        1 MOL     -0.193610
     91 C33         3.4900   -8.6340   -1.3510 ca        1 MOL      0.286306
     92 O14         4.2990   -9.6920   -1.6930 oh        1 MOL     -0.497664
     93 H37         2.6970   -2.8630   -0.8360 hn        1 MOL      0.246846
     94 H38         0.7120   -4.3880   -2.4200 h1        1 MOL      0.017792
     95 H39        -0.1770   -5.6730   -0.6440 hc        1 MOL      0.012245
     96 H40         1.0920   -5.1230    0.5820 hc        1 MOL      0.012245
     97 H41         3.2140   -6.0250    0.7480 ha        1 MOL      0.149713
     98 H42         0.4490   -7.3980   -2.1080 ha        1 MOL      0.149713
     99 H43         4.7580   -7.9000    0.2930 ha        1 MOL      0.155853
    100 H44         2.0460   -9.0750   -2.9590 ha        1 MOL      0.155853
    101 H45         3.8730  -10.3790   -2.2070 ho        1 MOL      0.355670
    102 N10        -1.0480   -2.8450   -1.7330 n         1 MOL     -0.639236
    103 C34        -2.1290   -1.9380   -1.5780 c3        1 MOL      0.044048
    104 C35        -3.4500   -2.5760   -1.1500 c         1 MOL      0.643028
    105 O15        -4.0540   -3.1820   -2.0110 o         1 MOL     -0.567238
    106 C36        -2.3380   -0.9370   -2.7930 c3        1 MOL     -0.024038
    107 C37        -1.1140   -0.0220   -3.1250 c3        1 MOL      0.159268
    108 C38        -3.4650    0.0490   -2.5180 c3        1 MOL     -0.157076
    109 C39        -1.1910    0.7740   -4.4500 c3        1 MOL     -0.188016
    110 H46        -1.1660   -3.5340   -2.4550 hn        1 MOL      0.329207
    111 H47        -1.8430   -1.3200   -0.7210 h1        1 MOL      0.115110
    112 H48        -2.5040   -1.5330   -3.6910 hc        1 MOL      0.041098
    113 H49        -0.2710   -0.7150   -3.2270 hc        1 MOL     -0.012946
    114 H50        -0.8070    0.5510   -2.2460 hc        1 MOL     -0.012946
    115 H51        -3.6930    0.6580   -3.4030 hc        1 MOL      0.042293
    116 H52        -4.4140   -0.4710   -2.3410 hc        1 MOL      0.042293
    117 H53        -3.2060    0.6620   -1.6560 hc        1 MOL      0.042293
    118 H54        -0.2680    1.2870   -4.7450 hc        1 MOL      0.037781
    119 H55        -1.5040    0.0490   -5.2000 hc        1 MOL      0.037781
    120 H56        -1.9670    1.5260   -4.3130 hc        1 MOL      0.037781
    121 N11        -3.9260   -2.3970    0.0410 n         1 MOL     -0.550500
    122 C40        -5.2860   -2.8530    0.4050 c3        1 MOL      0.153017
    123 C41        -6.4460   -2.0040   -0.2660 c         1 MOL      0.341613
    124 O16        -6.2520   -0.8870   -0.7000 o         1 MOL     -0.198080
    125 C42        -5.5180   -2.8000    1.9380 c3        1 MOL     -0.293636
    126 O17        -5.6560   -1.4490    2.3530 oh        1 MOL     -0.324715
    127 H57        -3.4490   -1.8580    0.7660 hn        1 MOL      0.382403
    128 H58        -5.4340   -3.8610    0.0370 h1        1 MOL      0.068341
    129 H59        -4.6760   -3.2580    2.4410 h1        1 MOL      0.128415
    130 H60        -6.4210   -3.3810    2.1360 h1        1 MOL      0.128415
    131 H61        -5.5830   -1.3970    3.3120 ho        1 MOL      0.368217
    132 N12        -7.6620   -2.6310   -0.2810 n         1 MOL     -0.519470
    133 C43        -8.9580   -2.0570   -0.6580 c3        1 MOL      0.238384
    134 C44        -9.3310   -0.7860    0.2170 c         1 MOL      0.303716
    135 O18       -10.1860    0.0390   -0.1920 o         1 MOL     -0.508346
    136 C45       -10.0140   -3.1710   -0.4720 c3        1 MOL     -0.309297
    137 H62        -7.7110   -3.5020    0.2160 hn        1 MOL      0.297697
    138 H63        -8.9540   -1.7140   -1.6920 h1        1 MOL      0.086911
    139 H64       -10.2260   -3.3390    0.5740 hc        1 MOL      0.093534
    140 H65       -10.8300   -2.8040   -1.1020 hc        1 MOL      0.093534
    141 H66        -9.8310   -4.1200   -0.9770 hc        1 MOL      0.093534
    142 N13        -8.6430   -0.5710    1.3310 n         1 MOL     -0.219059
    143 C46        -8.8140    0.6660    2.1490 c3        1 MOL      0.165290
    144 C47        -7.7830    1.7540    1.8780 c         1 MOL      0.314190
    145 O19        -8.1300    2.9130    1.8760 o         1 MOL     -0.499390
    146 C48        -8.6800    0.4550    3.6770 c3        1 MOL     -0.284595
    147 H67        -7.9990   -1.2820    1.6270 hn        1 MOL      0.188995
    148 H68        -9.8290    1.0410    1.9960 h1        1 MOL      0.093872
    149 H69        -7.6320    0.3340    3.9400 hc        1 MOL      0.075992
    150 H70        -9.1330    1.3290    4.1380 hc        1 MOL      0.075992
    151 H71        -9.3080   -0.3890    3.9430 hc        1 MOL      0.075992
    152 N14        -6.5180    1.3790    1.5260 n         1 MOL      0.055149
    153 C49        -5.4400    2.2850    1.1050 c3        1 MOL     -0.268801
    154 C50        -5.8000    2.7950   -0.3290 c         1 MOL      0.595845
    155 O20        -5.7190    3.9530   -0.5680 o         1 MOL     -0.556457
    156 C51        -4.2530    1.3570    1.2420 c3        1 MOL      0.165499
    157 C52        -2.9290    2.0950    1.0770 c3        1 MOL     -0.375703
    158 C53        -1.6890    1.1440    1.3290 c         1 MOL      0.892899
    159 O21        -0.5620    1.6330    1.3930 o         1 MOL     -0.817193
    160 O22        -1.8380   -0.0820    1.4330 o         1 MOL     -0.817193
    161 H72        -6.2900    0.4000    1.5570 hn        1 MOL     -0.113720
    162 H73        -5.2670    3.0930    1.8160 h1        1 MOL      0.121653
    163 H74        -4.3780    0.5500    0.5130 hc        1 MOL     -0.015084
    164 H75        -4.2270    1.0580    2.2870 hc        1 MOL     -0.015084
    165 H76        -2.9040    2.8950    1.8100 hc        1 MOL      0.106515
    166 H77        -2.8520    2.4380    0.0420 hc        1 MOL      0.106515
    167 N15        -6.3180    1.9070   -1.2240 n         1 MOL     -0.060688
    168 C54        -6.8240    2.2990   -2.5840 c3        1 MOL     -0.380034
    169 H78        -6.9850    1.4030   -3.1820 h1        1 MOL      0.135333
    170 H79        -7.7650    2.8390   -2.4800 h1        1 MOL      0.135333
    171 H80        -6.0900    2.9370   -3.0760 h1        1 MOL      0.135333
    172 H81        -6.1500    0.9390   -0.9830 hn        1 MOL     -0.012807
    173 Ca1         1.0640   -0.1740    2.0670 Ca        1 MOL      1.786124
    174 O23         0.4700   -0.3500    4.6350 oh        1 MOL     -0.857470
    175 H82         0.0570    0.3010    5.1960 ho        1 MOL      0.422914
    176 H83         0.8660   -0.9820    5.2340 ho        1 MOL      0.422914
    177 O24        -0.0780   -2.5340    2.6940 oh        1 MOL     -0.857470
    178 H84        -0.6400   -3.0580    2.1330 ho        1 MOL      0.422914
    179 H85        -0.3200   -2.8000    3.5830 ho        1 MOL      0.422914
@<TRIPOS>BOND
     1    1    2 1   
     2    1    4 1   
     3    1    5 1   
     4    1    6 1   
     5    2    3 2   
     6    2    7 1   
     7    7    8 1   
     8    7   15 1   
     9    8    9 1   
    10    8   11 1   
    11    8   16 1   
    12    9   10 2   
    13    9   19 1   
    14   11   12 1   
    15   11   17 1   
    16   11   18 1   
    17   12   13 1   
    18   12   14 1   
    19   19   20 1   
    20   19   28 1   
    21   20   21 1   
    22   20   23 1   
    23   20   29 1   
    24   21   22 2   
    25   21   41 1   
    26   23   24 1   
    27   23   30 1   
    28   23   31 1   
    29   24   25 1   
    30   24   32 1   
    31   24   33 1   
    32   25   26 1   
    33   25   34 1   
    34   25   35 1   
    35   26   27 1   
    36   26   36 1   
    37   26   37 1   
    38   27   38 1   
    39   27   39 1   
    40   27   40 1   
    41   41   42 1   
    42   41   49 1   
    43   42   43 1   
    44   42   45 1   
    45   42   50 1   
    46   43   44 2   
    47   43   53 1   
    48   45   46 1   
    49   45   51 1   
    50   45   52 1   
    51   46   47 1   
    52   46   48 1   
    53   53   54 1   
    54   53   57 1   
    55   54   55 1   
    56   54   58 1   
    57   54   59 1   
    58   55   56 2   
    59   55   60 1   
    60   60   61 1   
    61   60   68 1   
    62   61   62 1   
    63   61   64 1   
    64   61   69 1   
    65   62   63 2   
    66   62   74 1   
    67   64   65 1   
    68   64   70 1   
    69   64   71 1   
    70   65   66 1   
    71   65   67 2   
    72   66   72 1   
    73   66   73 1   
    74   74   75 1   
    75   74   78 1   
    76   75   76 1   
    77   75   79 1   
    78   75   80 1   
    79   76   77 2   
    80   76   81 1   
    81   81   82 1   
    82   81   93 1   
    83   82   83 1   
    84   82   85 1   
    85   82   94 1   
    86   83   84 2   
    87   83  102 1   
    88   85   86 1   
    89   85   95 1   
    90   85   96 1   
    91   86   87 ar  
    92   86   88 ar  
    93   87   89 ar  
    94   87   97 1   
    95   88   90 ar  
    96   88   98 1   
    97   89   91 ar  
    98   89   99 1   
    99   90   91 ar  
   100   90  100 1   
   101   91   92 1   
   102   92  101 1   
   103  102  103 1   
   104  102  110 1   
   105  103  104 1   
   106  103  106 1   
   107  103  111 1   
   108  104  105 2   
   109  104  121 1   
   110  106  107 1   
   111  106  108 1   
   112  106  112 1   
   113  107  109 1   
   114  107  113 1   
   115  107  114 1   
   116  108  115 1   
   117  108  116 1   
   118  108  117 1   
   119  109  118 1   
   120  109  119 1   
   121  109  120 1   
   122  121  122 1   
   123  121  127 1   
   124  122  123 1   
   125  122  125 1   
   126  122  128 1   
   127  123  124 2   
   128  123  132 1   
   129  125  126 1   
   130  125  129 1   
   131  125  130 1   
   132  126  131 1   
   133  132  133 1   
   134  132  137 1   
   135  133  134 1   
   136  133  136 1   
   137  133  138 1   
   138  134  135 2   
   139  134  142 1   
   140  136  139 1   
   141  136  140 1   
   142  136  141 1   
   143  142  143 1   
   144  142  147 1   
   145  143  144 1   
   146  143  146 1   
   147  143  148 1   
   148  144  145 2   
   149  144  152 1   
   150  146  149 1   
   151  146  150 1   
   152  146  151 1   
   153  152  153 1   
   154  152  161 1   
   155  153  154 1   
   156  153  156 1   
   157  153  162 1   
   158  154  155 2   
   159  154  167 1   
   160  156  157 1   
   161  156  163 1   
   162  156  164 1   
   163  157  158 1   
   164  157  165 1   
   165  157  166 1   
   166  158  159 1   
   167  158  160 1   
   168  167  168 1   
   169  167  172 1   
   170  168  169 1   
   171  168  170 1   
   172  168  171 1   
   173  174  175 1   
   174  174  176 1   
   175  177  178 1   
   176  177  179 1   
@<TRIPOS>SUBSTRUCTURE
     1 MOL         1 TEMP              0 ****  ****    0 ROOT
