@<TRIPOS>MOLECULE
MOL
  189   185     1     0     0
SMALL
resp


@<TRIPOS>ATOM
      1 C1          0.0720   -4.4790    5.6420 c3        1 MOL     -0.354296
      2 C2          0.7320   -3.8060    4.3940 c         1 MOL      0.701525
      3 O1          0.8100   -2.5610    4.3900 o         1 MOL     -0.615552
      4 H1         -0.8120   -3.9120    5.9350 hc        1 MOL      0.092274
      5 H2         -0.2170   -5.5000    5.3950 hc        1 MOL      0.092274
      6 H3          0.7840   -4.4910    6.4680 hc        1 MOL      0.092274
      7 N1          1.1400   -4.5830    3.3850 n         1 MOL     -0.636697
      8 C3          1.7010   -4.0810    2.0760 c3        1 MOL      0.604478
      9 C4          1.4290   -4.9790    0.8950 c         1 MOL      0.169163
     10 O2          1.5830   -6.1890    1.1210 o         1 MOL     -0.542387
     11 C5          3.1520   -3.8710    2.3750 c3        1 MOL     -0.504357
     12 C6          3.8450   -3.5890    1.0270 c         1 MOL      0.896286
     13 O3          4.6380   -4.3960    0.5090 o         1 MOL     -0.726984
     14 O4          3.5120   -2.5550    0.4980 o         1 MOL     -0.726984
     15 H4          1.0800   -5.5880    3.4520 hn        1 MOL      0.311756
     16 H5          1.1680   -3.1580    1.8870 h1        1 MOL     -0.079461
     17 H6          3.5440   -4.7670    2.8630 hc        1 MOL      0.085049
     18 H7          3.2630   -2.9450    2.9340 hc        1 MOL      0.085049
     19 N2          1.2880   -4.4900   -0.3750 n         1 MOL      0.183477
     20 C7          1.1440   -5.3510   -1.5510 c3        1 MOL     -0.186213
     21 C8          2.1630   -4.9160   -2.7070 c         1 MOL      0.441310
     22 O5          2.2380   -5.5990   -3.7310 o         1 MOL     -0.583734
     23 C9         -0.2840   -5.3480   -2.0910 c3        1 MOL      0.212615
     24 C10        -0.7380   -3.9120   -2.3270 c3        1 MOL      0.092682
     25 C11        -1.1360   -6.1970   -1.1530 c3        1 MOL     -0.258069
     26 C12        -1.9940   -3.7090   -3.1300 c3        1 MOL     -0.271391
     27 H8          1.2290   -3.4960   -0.5470 hn        1 MOL      0.175844
     28 H9          1.4360   -6.3420   -1.2020 h1        1 MOL      0.097668
     29 H10        -0.2960   -5.8320   -3.0580 hc        1 MOL     -0.042243
     30 H11         0.0730   -3.3470   -2.7870 hc        1 MOL      0.022617
     31 H12        -0.9330   -3.5870   -1.3070 hc        1 MOL      0.022617
     32 H13        -2.2000   -6.1740   -1.3630 hc        1 MOL      0.044902
     33 H14        -0.8110   -7.2340   -1.2420 hc        1 MOL      0.044902
     34 H15        -1.0050   -5.8640   -0.1160 hc        1 MOL      0.044902
     35 H16        -2.1930   -2.6390   -3.1850 hc        1 MOL      0.055598
     36 H17        -1.8370   -4.0480   -4.1540 hc        1 MOL      0.055598
     37 H18        -2.8200   -4.3010   -2.7300 hc        1 MOL      0.055598
     38 N3          2.9740   -3.9050   -2.5020 n         1 MOL     -0.036018
     39 C13         3.9390   -3.3480   -3.3650 c3        1 MOL     -0.029518
     40 C14         5.3230   -2.8430   -2.8980 c         1 MOL      0.322248
     41 O6          6.2410   -2.6470   -3.7350 o         1 MOL     -0.538479
     42 C15         3.2470   -2.2250   -4.1730 c3        1 MOL     -0.317699
     43 C16         2.3330   -1.2990   -3.3590 c         1 MOL      0.794368
     44 O7          2.6000   -1.0430   -2.1650 o         1 MOL     -0.705456
     45 O8          1.4650   -0.6580   -3.9240 o         1 MOL     -0.705456
     46 H19         2.8780   -3.4650   -1.5910 hn        1 MOL     -0.129127
     47 H20         4.0680   -4.1230   -4.1200 h1        1 MOL      0.111370
     48 H21         2.6330   -2.8730   -4.8010 hc        1 MOL      0.081064
     49 H22         3.9720   -1.6440   -4.7350 hc        1 MOL      0.081064
     50 N4          5.5460   -2.7800   -1.5660 n         1 MOL     -0.022098
     51 C17         6.8750   -2.5920   -0.9310 c3        1 MOL     -0.145633
     52 C18         7.5540   -1.2150   -1.2320 c         1 MOL      0.435659
     53 O9          8.7600   -1.1820   -1.2220 o         1 MOL     -0.572118
     54 H23         4.7230   -2.9090   -1.0010 hn        1 MOL      0.134569
     55 H24         7.6300   -3.2620   -1.3530 h1        1 MOL      0.078949
     56 H25         6.8230   -2.7510    0.1350 h1        1 MOL      0.078949
     57 N5          6.6980   -0.2500   -1.4840 n         1 MOL     -0.011523
     58 C19         7.0920    1.1010   -1.9290 c3        1 MOL     -0.364879
     59 C20         7.4710    2.0930   -0.7730 c         1 MOL      0.531793
     60 O10         8.1140    3.1410   -0.8970 o         1 MOL     -0.544232
     61 C21         5.9210    1.7710   -2.6470 c3        1 MOL     -0.040013
     62 C22         4.6250    1.8050   -1.7990 c         1 MOL      0.714455
     63 O11         4.4390    1.1140   -0.7610 o         1 MOL     -0.707884
     64 O12         3.7360    2.5860   -2.2970 o         1 MOL     -0.707884
     65 H26         5.7380   -0.5340   -1.3640 hn        1 MOL      0.158406
     66 H27         7.9540    1.0040   -2.5960 h1        1 MOL      0.171345
     67 H28         5.6800    1.2970   -3.5990 hc        1 MOL      0.054943
     68 H29         6.0900    2.7930   -2.9850 hc        1 MOL      0.054943
     69 N6          7.1080    1.7420    0.4690 n         1 MOL     -0.355932
     70 C23         7.1830    2.7040    1.5970 c3        1 MOL     -0.067245
     71 C24         5.9970    3.6880    1.8420 c         1 MOL      0.475446
     72 O13         6.1460    4.6420    2.5750 o         1 MOL     -0.588364
     73 H30         6.6850    0.8280    0.5440 hn        1 MOL      0.237357
     74 H31         8.1290    3.2410    1.5230 h1        1 MOL      0.073578
     75 H32         7.2660    2.1460    2.5280 h1        1 MOL      0.073578
     76 N7          4.9250    3.4660    1.1170 n         1 MOL     -0.176454
     77 C25         3.7080    4.2000    1.2360 c3        1 MOL     -0.034437
     78 C26         2.5160    3.2440    1.4340 c         1 MOL      0.449902
     79 O14         2.6600    2.0190    1.3820 o         1 MOL     -0.564563
     80 C27         3.4870    5.0630   -0.0250 c3        1 MOL      0.159171
     81 C28         4.2280    6.3850    0.0870 c3        1 MOL     -0.347054
     82 C29         3.6700    7.4830   -0.8550 c         1 MOL      0.610963
     83 N8          4.2930    7.9140   -1.9350 n         1 MOL     -0.744243
     84 O15         2.5470    7.9960   -0.6090 o         1 MOL     -0.571862
     85 H33         4.9890    2.6010    0.5950 hn        1 MOL      0.151927
     86 H34         3.5870    4.7950    2.1400 h1        1 MOL      0.071844
     87 H35         2.4070    5.2390   -0.0620 hc        1 MOL      0.017782
     88 H36         3.8460    4.4970   -0.8860 hc        1 MOL      0.017782
     89 H37         5.2560    6.1550   -0.1970 hc        1 MOL      0.102518
     90 H38         4.3010    6.7790    1.0980 hc        1 MOL      0.102518
     91 H39         5.2180    7.5660   -2.1600 hn        1 MOL      0.349645
     92 H40         3.8000    8.5970   -2.4830 hn        1 MOL      0.349645
     93 N9          1.4260    3.7510    1.9470 n         1 MOL     -0.312417
     94 C30         0.2220    2.9750    2.2700 c3        1 MOL     -0.092533
     95 C31        -1.0000    3.3650    1.4180 c         1 MOL      0.560026
     96 O16        -1.3060    4.5780    1.4810 o         1 MOL     -0.605411
     97 C32        -0.0890    3.0000    3.8160 c3        1 MOL      0.281612
     98 C33        -0.7400    1.6890    4.1690 c3        1 MOL     -0.403796
     99 C34         1.1330    3.0320    4.7110 c3        1 MOL     -0.403796
    100 H41         1.4670    4.7150    2.2480 hn        1 MOL      0.255603
    101 H42         0.4310    1.9230    2.0840 h1        1 MOL      0.138392
    102 H43        -0.8280    3.7740    4.0450 hc        1 MOL     -0.026262
    103 H44        -0.0250    0.9100    3.8980 hc        1 MOL      0.095197
    104 H45        -1.0460    1.6000    5.2100 hc        1 MOL      0.095197
    105 H46        -1.6000    1.5520    3.5050 hc        1 MOL      0.095197
    106 H47         0.7680    2.8990    5.7260 hc        1 MOL      0.095197
    107 H48         1.8160    2.2020    4.5220 hc        1 MOL      0.095197
    108 H49         1.6210    4.0050    4.6820 hc        1 MOL      0.095197
    109 N10        -1.6820    2.4160    0.8110 n         1 MOL     -0.322232
    110 C35        -2.8510    2.6740    0.0190 c3        1 MOL      0.164396
    111 C36        -4.1140    2.2530    0.7650 c         1 MOL      0.163393
    112 O17        -4.0310    1.3650    1.6720 o         1 MOL     -0.292414
    113 C37        -2.7110    1.8850   -1.3310 c3        1 MOL     -0.266091
    114 C38        -3.9800    1.8790   -2.2160 c         1 MOL      0.690283
    115 N11        -4.3560    3.0590   -2.7510 n         1 MOL     -0.805977
    116 O18        -4.5500    0.8150   -2.4430 o         1 MOL     -0.537111
    117 H50        -1.3270    1.4700    0.9130 hn        1 MOL      0.201179
    118 H51        -2.8760    3.7340   -0.2520 h1        1 MOL      0.031752
    119 H52        -2.5490    0.8410   -1.0720 hc        1 MOL      0.118549
    120 H53        -1.9080    2.2050   -1.9960 hc        1 MOL      0.118549
    121 H54        -3.8660    3.9150   -2.4920 hn        1 MOL      0.365825
    122 H55        -5.1730    3.0070   -3.3440 hn        1 MOL      0.365825
    123 N12        -5.2420    2.7210    0.3290 n         1 MOL     -0.119410
    124 C39        -6.5110    2.2610    0.9320 c3        1 MOL      0.144563
    125 C40        -6.8130    0.7250    1.0290 c         1 MOL      0.302571
    126 O19        -7.3510    0.2770    2.0750 o         1 MOL     -0.523951
    127 C41        -7.6230    2.9890    0.3100 c3        1 MOL     -0.439992
    128 C42        -7.5480    3.0540   -1.2070 ca        1 MOL      0.103026
    129 C43        -7.0220    4.1890   -1.8860 ca        1 MOL     -0.109164
    130 C44        -8.0850    1.9960   -1.9390 ca        1 MOL     -0.109164
    131 C45        -7.1080    4.2630   -3.2800 ca        1 MOL     -0.319278
    132 C46        -7.9690    2.0740   -3.3290 ca        1 MOL     -0.319278
    133 C47        -7.5950    3.2060   -4.0700 ca        1 MOL      0.411491
    134 O20        -7.6380    3.3640   -5.3940 oh        1 MOL     -0.534597
    135 H56        -5.1760    3.2680   -0.5230 hn        1 MOL      0.091160
    136 H57        -6.3620    2.5790    1.9640 h1        1 MOL      0.081103
    137 H58        -7.4720    4.0130    0.6630 hc        1 MOL      0.137692
    138 H59        -8.5610    2.5150    0.5660 hc        1 MOL      0.137692
    139 H60        -6.4970    4.9150   -1.2860 ha        1 MOL      0.124142
    140 H61        -8.4140    1.0980   -1.4360 ha        1 MOL      0.124142
    141 H62        -6.7240    5.1430   -3.7800 ha        1 MOL      0.130290
    142 H63        -8.1890    1.1990   -3.9100 ha        1 MOL      0.130290
    143 H64        -7.9960    2.5310   -5.6950 ho        1 MOL      0.405217
    144 N13        -6.3540   -0.1070    0.0150 n         1 MOL      0.190894
    145 C48        -6.2990   -1.5820    0.1470 c3        1 MOL     -0.483780
    146 C49        -5.3030   -2.1490    1.1000 c         1 MOL      0.652557
    147 O21        -5.4450   -3.3490    1.4560 o         1 MOL     -0.562698
    148 C50        -5.9550   -2.1350   -1.2200 c3        1 MOL      0.000213
    149 C51        -6.9320   -1.8810   -2.3450 c3        1 MOL     -0.192614
    150 C52        -8.3550   -2.2580   -2.0370 c         1 MOL      0.737747
    151 O22        -8.6810   -3.3160   -1.4320 o         1 MOL     -0.729970
    152 O23        -9.2490   -1.6050   -2.4600 o         1 MOL     -0.729970
    153 H65        -5.8740    0.3080   -0.7800 hn        1 MOL      0.128333
    154 H66        -7.2890   -1.9500    0.4280 h1        1 MOL      0.199393
    155 H67        -5.8110   -3.2190   -1.2130 hc        1 MOL      0.039207
    156 H68        -4.9430   -1.7760   -1.4420 hc        1 MOL      0.039207
    157 H69        -6.6720   -2.3990   -3.2720 hc        1 MOL      0.031804
    158 H70        -6.8660   -0.8670   -2.7300 hc        1 MOL      0.031804
    159 N14        -4.4030   -1.3670    1.6640 n         1 MOL     -0.322923
    160 C53        -3.5250   -1.8780    2.7360 c3        1 MOL     -0.023985
    161 C54        -4.0170   -1.3990    4.0470 c         1 MOL      0.401841
    162 O24        -3.8560   -2.1820    5.0340 o         1 MOL     -0.573901
    163 C55        -2.0940   -1.5000    2.5000 c3        1 MOL      0.093282
    164 C56        -1.6810   -2.1170    1.1510 c3        1 MOL      0.018596
    165 C57        -0.4880   -1.3650    0.5090 c         1 MOL      0.822894
    166 O25         0.4450   -2.0080   -0.0200 o         1 MOL     -0.809558
    167 O26        -0.2590   -0.1410    0.6510 o         1 MOL     -0.809558
    168 H71        -4.2520   -0.4170    1.3400 hn        1 MOL      0.133901
    169 H72        -3.4800   -2.9690    2.7320 h1        1 MOL      0.076786
    170 H73        -1.4400   -1.8310    3.3040 hc        1 MOL      0.027348
    171 H74        -2.0250   -0.4200    2.4620 hc        1 MOL      0.027348
    172 H75        -2.4680   -2.1070    0.4090 hc        1 MOL     -0.032112
    173 H76        -1.4890   -3.1690    1.3320 hc        1 MOL     -0.032112
    174 N15        -4.5980   -0.2150    4.0470 n         1 MOL     -0.034627
    175 C58        -4.8960    0.4770    5.2440 c3        1 MOL     -0.204470
    176 H77        -5.8300    1.0250    5.1230 h1        1 MOL      0.071788
    177 H78        -4.9980   -0.2380    6.0610 h1        1 MOL      0.071788
    178 H79        -4.0910    1.1760    5.4700 h1        1 MOL      0.071788
    179 H80        -4.6780    0.2090    3.1330 hn        1 MOL      0.066520
    180 Ca1         2.3600   -0.2220    0.2000 Ca        1 MOL      1.763644
    181 O27         1.7440   -0.4740    3.0450 oh        1 MOL     -0.853742
    182 H81         2.4480   -0.2440    3.6570 ho        1 MOL      0.404342
    183 H82         1.3390   -1.2460    3.4460 ho        1 MOL      0.404342
    184 O28         4.5000   -0.4980    2.1370 oh        1 MOL     -0.853742
    185 H83         5.4570   -0.5060    2.1650 ho        1 MOL      0.404342
    186 H84         4.2280   -0.1470    2.9950 ho        1 MOL      0.404342
    187 O29         1.4480    1.3940   -1.7560 oh        1 MOL     -0.853742
    188 H85         1.6310    0.6740   -2.3640 ho        1 MOL      0.404342
    189 H86         2.0210    2.1060   -2.0400 ho        1 MOL      0.404342
@<TRIPOS>BOND
     1    1    2 1   
     2    1    4 1   
     3    1    5 1   
     4    1    6 1   
     5    2    3 2   
     6    2    7 1   
     7    7    8 1   
     8    7   15 1   
     9    8    9 1   
    10    8   11 1   
    11    8   16 1   
    12    9   10 2   
    13    9   19 1   
    14   11   12 1   
    15   11   17 1   
    16   11   18 1   
    17   12   13 1   
    18   12   14 1   
    19   19   20 1   
    20   19   27 1   
    21   20   21 1   
    22   20   23 1   
    23   20   28 1   
    24   21   22 2   
    25   21   38 1   
    26   23   24 1   
    27   23   25 1   
    28   23   29 1   
    29   24   26 1   
    30   24   30 1   
    31   24   31 1   
    32   25   32 1   
    33   25   33 1   
    34   25   34 1   
    35   26   35 1   
    36   26   36 1   
    37   26   37 1   
    38   38   39 1   
    39   38   46 1   
    40   39   40 1   
    41   39   42 1   
    42   39   47 1   
    43   40   41 2   
    44   40   50 1   
    45   42   43 1   
    46   42   48 1   
    47   42   49 1   
    48   43   44 1   
    49   43   45 1   
    50   50   51 1   
    51   50   54 1   
    52   51   52 1   
    53   51   55 1   
    54   51   56 1   
    55   52   53 2   
    56   52   57 1   
    57   57   58 1   
    58   57   65 1   
    59   58   59 1   
    60   58   61 1   
    61   58   66 1   
    62   59   60 2   
    63   59   69 1   
    64   61   62 1   
    65   61   67 1   
    66   61   68 1   
    67   62   63 1   
    68   62   64 1   
    69   69   70 1   
    70   69   73 1   
    71   70   71 1   
    72   70   74 1   
    73   70   75 1   
    74   71   72 2   
    75   71   76 1   
    76   76   77 1   
    77   76   85 1   
    78   77   78 1   
    79   77   80 1   
    80   77   86 1   
    81   78   79 2   
    82   78   93 1   
    83   80   81 1   
    84   80   87 1   
    85   80   88 1   
    86   81   82 1   
    87   81   89 1   
    88   81   90 1   
    89   82   83 1   
    90   82   84 2   
    91   83   91 1   
    92   83   92 1   
    93   93   94 1   
    94   93  100 1   
    95   94   95 1   
    96   94   97 1   
    97   94  101 1   
    98   95   96 2   
    99   95  109 1   
   100   97   98 1   
   101   97   99 1   
   102   97  102 1   
   103   98  103 1   
   104   98  104 1   
   105   98  105 1   
   106   99  106 1   
   107   99  107 1   
   108   99  108 1   
   109  109  110 1   
   110  109  117 1   
   111  110  111 1   
   112  110  113 1   
   113  110  118 1   
   114  111  112 2   
   115  111  123 1   
   116  113  114 1   
   117  113  119 1   
   118  113  120 1   
   119  114  115 1   
   120  114  116 2   
   121  115  121 1   
   122  115  122 1   
   123  123  124 1   
   124  123  135 1   
   125  124  125 1   
   126  124  127 1   
   127  124  136 1   
   128  125  126 2   
   129  125  144 1   
   130  127  128 1   
   131  127  137 1   
   132  127  138 1   
   133  128  129 ar  
   134  128  130 ar  
   135  129  131 ar  
   136  129  139 1   
   137  130  132 ar  
   138  130  140 1   
   139  131  133 ar  
   140  131  141 1   
   141  132  133 ar  
   142  132  142 1   
   143  133  134 1   
   144  134  143 1   
   145  144  145 1   
   146  144  153 1   
   147  145  146 1   
   148  145  148 1   
   149  145  154 1   
   150  146  147 2   
   151  146  159 1   
   152  148  149 1   
   153  148  155 1   
   154  148  156 1   
   155  149  150 1   
   156  149  157 1   
   157  149  158 1   
   158  150  151 1   
   159  150  152 1   
   160  159  160 1   
   161  159  168 1   
   162  160  161 1   
   163  160  163 1   
   164  160  169 1   
   165  161  162 2   
   166  161  174 1   
   167  163  164 1   
   168  163  170 1   
   169  163  171 1   
   170  164  165 1   
   171  164  172 1   
   172  164  173 1   
   173  165  166 1   
   174  165  167 1   
   175  174  175 1   
   176  174  179 1   
   177  175  176 1   
   178  175  177 1   
   179  175  178 1   
   180  181  182 1   
   181  181  183 1   
   182  184  185 1   
   183  184  186 1   
   184  187  188 1   
   185  187  189 1   
@<TRIPOS>SUBSTRUCTURE
     1 MOL         1 TEMP              0 ****  ****    0 ROOT
