@<TRIPOS>MOLECULE
MOL
  179   176     1     0     0
SMALL
resp


@<TRIPOS>ATOM
      1 C1          1.4940    4.0770    4.7970 c3        1 MOL     -0.409720
      2 C2          0.7990    3.6820    3.4630 c         1 MOL      0.572826
      3 O1          1.2760    4.0500    2.3880 o         1 MOL     -0.571394
      4 H1          2.0480    3.2210    5.1840 hc        1 MOL      0.113217
      5 H2          2.1830    4.9020    4.6170 hc        1 MOL      0.113217
      6 H3          0.7420    4.3810    5.5230 hc        1 MOL      0.113217
      7 N1         -0.4040    3.1030    3.4870 n         1 MOL     -0.409130
      8 C3         -1.1890    2.7470    2.3150 c3        1 MOL      0.099116
      9 C4         -1.9130    3.9790    1.7940 c         1 MOL      0.522277
     10 O2         -2.9400    4.3370    2.3280 o         1 MOL     -0.510803
     11 C5         -2.0200    1.4540    2.5400 c3        1 MOL     -0.583257
     12 C6         -3.0640    1.2030    1.3520 c         1 MOL      1.109502
     13 O3         -4.1350    0.6350    1.5750 o         1 MOL     -0.773049
     14 O4         -2.8200    1.6170    0.1670 o         1 MOL     -0.773049
     15 H4         -0.7890    3.0050    4.4160 hn        1 MOL      0.305170
     16 H5         -0.4620    2.4790    1.5440 h1        1 MOL     -0.045023
     17 H6         -2.4990    1.5890    3.5190 hc        1 MOL      0.143383
     18 H7         -1.3180    0.6240    2.6330 hc        1 MOL      0.143383
     19 N2         -1.4470    4.6440    0.7370 n         1 MOL     -0.537994
     20 C7         -1.9020    5.9160    0.1060 c3        1 MOL      0.138097
     21 C8         -3.0540    5.8420   -0.8740 c         1 MOL      0.389250
     22 O5         -3.7100    6.8440   -1.0820 o         1 MOL     -0.529067
     23 C9         -0.7180    6.7000   -0.5450 c3        1 MOL     -0.283903
     24 C10         0.4690    6.7800    0.3880 c3        1 MOL      0.472743
     25 C11         1.6170    7.7410   -0.0510 c3        1 MOL     -0.120509
     26 C12         2.8230    7.9400    0.8990 c3        1 MOL     -0.065701
     27 N3          2.4940    8.4470    2.2030 n4        1 MOL     -0.270612
     28 H8         -0.5480    4.3060    0.4120 hn        1 MOL      0.351363
     29 H9         -2.2310    6.5180    0.9640 h1        1 MOL      0.067168
     30 H10        -1.0300    7.7060   -0.8100 hc        1 MOL      0.074284
     31 H11        -0.5610    6.1050   -1.4440 hc        1 MOL      0.074284
     32 H12         0.9250    5.8200    0.6370 hc        1 MOL     -0.096719
     33 H13         0.0200    7.2610    1.2620 hc        1 MOL     -0.096719
     34 H14         1.1890    8.7280   -0.2380 hc        1 MOL      0.035841
     35 H15         2.0400    7.3640   -0.9840 hc        1 MOL      0.035841
     36 H16         3.3610    8.7320    0.3910 hx        1 MOL      0.124499
     37 H17         3.5200    7.0970    0.9440 hx        1 MOL      0.124499
     38 H18         1.9890    7.7340    2.7070 hn        1 MOL      0.305684
     39 H19         3.2790    8.7810    2.7510 hn        1 MOL      0.305684
     40 H20         1.8210    9.2020    2.2040 hn        1 MOL      0.305684
     41 N4         -3.3740    4.5990   -1.2740 n         1 MOL     -0.089830
     42 C13        -4.4000    4.3040   -2.2950 c3        1 MOL     -0.044106
     43 C14        -5.5810    3.5200   -1.6610 c         1 MOL      0.460869
     44 O6         -6.6450    3.5920   -2.2020 o         1 MOL     -0.527836
     45 C15        -3.9500    3.5700   -3.5340 c3        1 MOL     -0.074184
     46 C16        -3.1140    2.3820   -3.2200 c         1 MOL      0.792760
     47 O7         -3.6370    1.2740   -3.1740 o         1 MOL     -0.785642
     48 O8         -1.9070    2.5590   -2.9580 o         1 MOL     -0.785642
     49 H21        -2.7420    3.8330   -1.1050 hn        1 MOL      0.080083
     50 H22        -4.8580    5.2290   -2.6360 h1        1 MOL      0.102801
     51 H23        -3.3580    4.2010   -4.2050 hc        1 MOL      0.026039
     52 H24        -4.7660    3.3060   -4.2000 hc        1 MOL      0.026039
     53 N5         -5.4650    2.8470   -0.4940 n         1 MOL     -0.200091
     54 C17        -6.6530    2.4470    0.2500 c3        1 MOL     -0.160220
     55 C18        -7.1480    1.0470    0.0230 c         1 MOL      0.472070
     56 O9         -8.2930    0.6960    0.4510 o         1 MOL     -0.566039
     57 H25        -4.5140    2.7820   -0.1670 hn        1 MOL      0.162249
     58 H26        -7.5770    3.0030    0.1290 h1        1 MOL      0.112450
     59 H27        -6.5000    2.4420    1.3270 h1        1 MOL      0.112450
     60 N6         -6.3400    0.1500   -0.6140 n         1 MOL     -0.107870
     61 C19        -6.7350   -1.2420   -0.8320 c3        1 MOL     -0.270875
     62 C20        -6.5010   -2.2510    0.3610 c         1 MOL      0.370123
     63 O10        -6.9490   -3.4090    0.2680 o         1 MOL     -0.433878
     64 C21        -6.1780   -1.7410   -2.2160 c3        1 MOL     -0.114312
     65 C22        -4.6870   -1.8780   -2.2840 c         1 MOL      0.816645
     66 N7         -4.3070   -2.5060   -3.3620 n         1 MOL     -0.788377
     67 O11        -3.9540   -1.3260   -1.5330 o         1 MOL     -0.602275
     68 H28        -5.4680    0.5120   -0.9460 hn        1 MOL      0.148987
     69 H29        -7.7990   -1.1440   -1.0830 h1        1 MOL      0.172593
     70 H30        -6.5520   -1.1520   -3.0550 hc        1 MOL      0.057806
     71 H31        -6.5470   -2.7670   -2.3190 hc        1 MOL      0.057806
     72 H32        -5.0030   -2.8120   -4.0210 hn        1 MOL      0.354584
     73 H33        -3.3160   -2.6220   -3.5230 hn        1 MOL      0.354584
     74 N8         -5.8110   -1.7860    1.4290 n         1 MOL     -0.197257
     75 C23        -5.5490   -2.6250    2.5400 c3        1 MOL     -0.160711
     76 C24        -4.1430   -3.3190    2.4350 c         1 MOL      0.555372
     77 O12        -3.9230   -4.3100    3.0890 o         1 MOL     -0.506054
     78 H34        -5.3790   -0.8790    1.3410 hn        1 MOL      0.298508
     79 H35        -6.3160   -3.3850    2.7110 h1        1 MOL      0.108426
     80 H36        -5.6020   -2.0020    3.4240 h1        1 MOL      0.108426
     81 N9         -3.2150   -2.7680    1.6040 n         1 MOL     -0.501291
     82 C25        -1.8980   -3.3900    1.3150 c3        1 MOL      0.235065
     83 C26        -0.7770   -2.4230    1.0180 c         1 MOL      0.560282
     84 O13        -0.9430   -1.3880    0.3760 o         1 MOL     -0.706145
     85 C27        -2.0950   -4.4460    0.1930 c3        1 MOL      0.011922
     86 C28        -3.0500   -5.5720    0.5360 ca        1 MOL      0.025012
     87 C29        -4.3390   -5.3910   -0.0050 ca        1 MOL     -0.189298
     88 C30        -2.5930   -6.7500    1.1410 ca        1 MOL     -0.189298
     89 C31        -5.2560   -6.5050    0.2030 ca        1 MOL     -0.149247
     90 C32        -3.4900   -7.8390    1.3100 ca        1 MOL     -0.149247
     91 C33        -4.8460   -7.7350    0.8150 ca        1 MOL      0.214546
     92 O14        -5.7770   -8.7630    1.0180 oh        1 MOL     -0.458288
     93 H37        -3.3930   -1.8940    1.1340 hn        1 MOL      0.205415
     94 H38        -1.6490   -3.9940    2.1900 h1        1 MOL      0.019220
     95 H39        -1.1430   -4.9340    0.0250 hc        1 MOL     -0.005711
     96 H40        -2.3950   -3.8270   -0.6540 hc        1 MOL     -0.005711
     97 H41        -4.5360   -4.5030   -0.5830 ha        1 MOL      0.126717
     98 H42        -1.5370   -6.9240    1.2640 ha        1 MOL      0.126717
     99 H43        -6.2370   -6.3990   -0.2460 ha        1 MOL      0.119353
    100 H44        -3.1400   -8.7770    1.7180 ha        1 MOL      0.119353
    101 H45        -5.3690   -9.4470    1.5550 ho        1 MOL      0.352502
    102 N10         0.4490   -2.9000    1.4240 n         1 MOL     -0.504275
    103 C34         1.7440   -2.2840    1.0270 c3        1 MOL     -0.153702
    104 C35         2.8050   -3.2570    0.6200 c         1 MOL      0.559427
    105 O15         3.1910   -4.2230    1.3080 o         1 MOL     -0.515743
    106 C36         2.2180   -1.2630    2.0720 c3        1 MOL      0.160683
    107 C37         2.3690   -1.8460    3.4750 c3        1 MOL     -0.084813
    108 C38         1.3120   -0.0740    2.1740 c3        1 MOL     -0.582486
    109 C39         2.9960   -0.8760    4.5720 c3        1 MOL     -0.084703
    110 H46         0.5070   -3.7620    1.9470 hn        1 MOL      0.324357
    111 H47         1.6270   -1.7100    0.1080 h1        1 MOL      0.176309
    112 H48         3.1700   -0.8430    1.7500 hc        1 MOL     -0.083670
    113 H49         3.0360   -2.6920    3.3120 hc        1 MOL      0.044213
    114 H50         1.3820   -2.1600    3.8070 hc        1 MOL      0.044213
    115 H51         1.1840    0.4670    1.2310 hc        1 MOL      0.200048
    116 H52         0.3770   -0.3900    2.6240 hc        1 MOL      0.200048
    117 H53         1.7190    0.6690    2.8680 hc        1 MOL      0.200048
    118 H54         3.8820   -0.3200    4.2710 hc        1 MOL      0.023722
    119 H55         2.2570   -0.1210    4.8440 hc        1 MOL      0.023722
    120 H56         3.3450   -1.4580    5.4250 hc        1 MOL      0.023722
    121 N11         3.3380   -2.9270   -0.5930 n         1 MOL     -0.346963
    122 C40         4.5450   -3.5880   -1.0230 c3        1 MOL     -0.106166
    123 C41         5.7950   -3.0150   -0.3880 c         1 MOL      0.433889
    124 O16         5.8270   -2.0760    0.3770 o         1 MOL     -0.298869
    125 C42         4.5980   -3.4020   -2.5550 c3        1 MOL     -0.034239
    126 O17         4.6830   -2.0380   -2.8800 oh        1 MOL     -0.581649
    127 H57         2.8400   -2.2390   -1.1250 hn        1 MOL      0.254967
    128 H58         4.4730   -4.6590   -0.7870 h1        1 MOL      0.096198
    129 H59         3.7530   -3.8880   -3.0260 h1        1 MOL      0.095637
    130 H60         5.5090   -3.8150   -2.9940 h1        1 MOL      0.095637
    131 H61         3.8240   -1.6210   -2.7850 ho        1 MOL      0.429500
    132 N12         6.9760   -3.6930   -0.5940 n         1 MOL     -0.415620
    133 C43         8.2840   -3.3640   -0.0480 c3        1 MOL      0.142138
    134 C44         8.7290   -1.9200   -0.5290 c         1 MOL      0.446346
    135 O18         9.1880   -1.1570    0.3410 o         1 MOL     -0.516294
    136 C45         9.3300   -4.4510   -0.4010 c3        1 MOL     -0.323922
    137 H62         7.0210   -4.4200   -1.2840 hn        1 MOL      0.258925
    138 H63         8.2240   -3.3150    1.0390 h1        1 MOL      0.082622
    139 H64        10.3310   -4.0120   -0.4670 hc        1 MOL      0.095949
    140 H65         9.3000   -5.2900    0.2950 hc        1 MOL      0.095949
    141 H66         9.1220   -4.8660   -1.3810 hc        1 MOL      0.095949
    142 N13         8.4660   -1.5050   -1.7680 n         1 MOL     -0.375936
    143 C46         8.6650   -0.1140   -2.2880 c3        1 MOL      0.070265
    144 C47         7.7590    0.8680   -1.4630 c         1 MOL      0.428360
    145 O19         8.2220    1.9660   -1.0920 o         1 MOL     -0.515835
    146 C48         8.2850   -0.1200   -3.7400 c3        1 MOL     -0.226654
    147 H67         8.2750   -2.2450   -2.4320 hn        1 MOL      0.270828
    148 H68         9.6860    0.1760   -2.0600 h1        1 MOL      0.089622
    149 H69         7.2100   -0.1160   -3.8960 hc        1 MOL      0.068809
    150 H70         8.5330    0.9080   -3.9980 hc        1 MOL      0.068809
    151 H71         8.8040   -0.8150   -4.4110 hc        1 MOL      0.068809
    152 N14         6.4900    0.5250   -1.1630 n         1 MOL     -0.201092
    153 C49         5.5130    1.3370   -0.3610 c3        1 MOL     -0.002027
    154 C50         5.9750    1.5400    1.0980 c         1 MOL      0.385109
    155 O20         5.8180    2.6460    1.6380 o         1 MOL     -0.565352
    156 C51         4.0330    0.7870   -0.4110 c3        1 MOL      0.015165
    157 C52         3.2640    0.8700   -1.6990 c3        1 MOL     -0.264624
    158 C53         2.0240   -0.0270   -1.9680 c         1 MOL      0.838636
    159 O21         0.9090    0.4770   -1.6540 o         1 MOL     -0.740407
    160 O22         2.1030   -1.1780   -2.5010 o         1 MOL     -0.740407
    161 H72         6.2590   -0.4290   -1.3950 hn        1 MOL      0.165362
    162 H73         5.4920    2.3700   -0.7080 h1        1 MOL      0.082512
    163 H74         3.4800    1.2390    0.4150 hc        1 MOL      0.075118
    164 H75         4.1870   -0.2830   -0.2770 hc        1 MOL      0.075118
    165 H76         3.9950    0.6150   -2.4700 hc        1 MOL      0.036918
    166 H77         3.0330    1.9110   -1.9180 hc        1 MOL      0.036918
    167 N15         6.5700    0.5570    1.7280 n         1 MOL      0.006570
    168 C54         7.3000    0.6910    3.0680 c3        1 MOL     -0.355768
    169 H78         7.7670   -0.2600    3.3230 h1        1 MOL      0.138283
    170 H79         8.0660    1.4620    2.9900 h1        1 MOL      0.138283
    171 H80         6.5870    0.9650    3.8450 h1        1 MOL      0.138283
    172 H81         6.5550   -0.3380    1.2560 hn        1 MOL      0.054659
    173 Ca1        -1.6700    0.1630   -1.6130 Ca        1 MOL      1.747822
    174 O23        -0.5410   -2.1390   -2.6960 oh        1 MOL     -0.879927
    175 H82         0.2790   -1.7260   -2.9550 ho        1 MOL      0.428668
    176 H83        -0.3300   -3.0770   -2.6330 ho        1 MOL      0.428668
    177 O24        -0.8360    0.3500   -4.2210 oh        1 MOL     -0.879927
    178 H84        -0.0680    0.2070   -4.7630 ho        1 MOL      0.428668
    179 H85        -1.2600    1.1250   -4.5940 ho        1 MOL      0.428668
@<TRIPOS>BOND
     1    1    2 1   
     2    1    4 1   
     3    1    5 1   
     4    1    6 1   
     5    2    3 2   
     6    2    7 1   
     7    7    8 1   
     8    7   15 1   
     9    8    9 1   
    10    8   11 1   
    11    8   16 1   
    12    9   10 2   
    13    9   19 1   
    14   11   12 1   
    15   11   17 1   
    16   11   18 1   
    17   12   13 1   
    18   12   14 1   
    19   19   20 1   
    20   19   28 1   
    21   20   21 1   
    22   20   23 1   
    23   20   29 1   
    24   21   22 2   
    25   21   41 1   
    26   23   24 1   
    27   23   30 1   
    28   23   31 1   
    29   24   25 1   
    30   24   32 1   
    31   24   33 1   
    32   25   26 1   
    33   25   34 1   
    34   25   35 1   
    35   26   27 1   
    36   26   36 1   
    37   26   37 1   
    38   27   38 1   
    39   27   39 1   
    40   27   40 1   
    41   41   42 1   
    42   41   49 1   
    43   42   43 1   
    44   42   45 1   
    45   42   50 1   
    46   43   44 2   
    47   43   53 1   
    48   45   46 1   
    49   45   51 1   
    50   45   52 1   
    51   46   47 1   
    52   46   48 1   
    53   53   54 1   
    54   53   57 1   
    55   54   55 1   
    56   54   58 1   
    57   54   59 1   
    58   55   56 2   
    59   55   60 1   
    60   60   61 1   
    61   60   68 1   
    62   61   62 1   
    63   61   64 1   
    64   61   69 1   
    65   62   63 2   
    66   62   74 1   
    67   64   65 1   
    68   64   70 1   
    69   64   71 1   
    70   65   66 1   
    71   65   67 2   
    72   66   72 1   
    73   66   73 1   
    74   74   75 1   
    75   74   78 1   
    76   75   76 1   
    77   75   79 1   
    78   75   80 1   
    79   76   77 2   
    80   76   81 1   
    81   81   82 1   
    82   81   93 1   
    83   82   83 1   
    84   82   85 1   
    85   82   94 1   
    86   83   84 2   
    87   83  102 1   
    88   85   86 1   
    89   85   95 1   
    90   85   96 1   
    91   86   87 ar  
    92   86   88 ar  
    93   87   89 ar  
    94   87   97 1   
    95   88   90 ar  
    96   88   98 1   
    97   89   91 ar  
    98   89   99 1   
    99   90   91 ar  
   100   90  100 1   
   101   91   92 1   
   102   92  101 1   
   103  102  103 1   
   104  102  110 1   
   105  103  104 1   
   106  103  106 1   
   107  103  111 1   
   108  104  105 2   
   109  104  121 1   
   110  106  107 1   
   111  106  108 1   
   112  106  112 1   
   113  107  109 1   
   114  107  113 1   
   115  107  114 1   
   116  108  115 1   
   117  108  116 1   
   118  108  117 1   
   119  109  118 1   
   120  109  119 1   
   121  109  120 1   
   122  121  122 1   
   123  121  127 1   
   124  122  123 1   
   125  122  125 1   
   126  122  128 1   
   127  123  124 2   
   128  123  132 1   
   129  125  126 1   
   130  125  129 1   
   131  125  130 1   
   132  126  131 1   
   133  132  133 1   
   134  132  137 1   
   135  133  134 1   
   136  133  136 1   
   137  133  138 1   
   138  134  135 2   
   139  134  142 1   
   140  136  139 1   
   141  136  140 1   
   142  136  141 1   
   143  142  143 1   
   144  142  147 1   
   145  143  144 1   
   146  143  146 1   
   147  143  148 1   
   148  144  145 2   
   149  144  152 1   
   150  146  149 1   
   151  146  150 1   
   152  146  151 1   
   153  152  153 1   
   154  152  161 1   
   155  153  154 1   
   156  153  156 1   
   157  153  162 1   
   158  154  155 2   
   159  154  167 1   
   160  156  157 1   
   161  156  163 1   
   162  156  164 1   
   163  157  158 1   
   164  157  165 1   
   165  157  166 1   
   166  158  159 1   
   167  158  160 1   
   168  167  168 1   
   169  167  172 1   
   170  168  169 1   
   171  168  170 1   
   172  168  171 1   
   173  174  175 1   
   174  174  176 1   
   175  177  178 1   
   176  177  179 1   
@<TRIPOS>SUBSTRUCTURE
     1 MOL         1 TEMP              0 ****  ****    0 ROOT
