@<TRIPOS>MOLECULE
MOL
  176   174     1     0     0
SMALL
resp


@<TRIPOS>ATOM
      1 C1          1.7760    4.3860    4.1850 c3        1 MOL     -0.377386
      2 C2          1.0750    3.7370    3.0530 c         1 MOL      0.761572
      3 O1          1.6170    3.6680    1.9690 o         1 MOL     -0.590671
      4 H1          1.8210    5.4620    4.0160 hc        1 MOL      0.090262
      5 H2          1.2350    4.1870    5.1100 hc        1 MOL      0.090262
      6 H3          2.7880    3.9890    4.2630 hc        1 MOL      0.090262
      7 N1         -0.2120    3.4000    3.2760 n         1 MOL     -0.716755
      8 C3         -1.0360    2.7180    2.2260 c3        1 MOL      0.013300
      9 C4         -1.7300    3.8190    1.3890 c         1 MOL      0.560762
     10 O2         -2.9460    4.0510    1.4710 o         1 MOL     -0.486912
     11 C5         -2.0790    1.6750    2.7980 c3        1 MOL     -0.093989
     12 C6         -3.0900    1.0920    1.8170 c         1 MOL      0.574869
     13 O3         -4.0270    0.4910    2.3500 o         1 MOL     -0.608140
     14 O4         -2.8290    1.0330    0.5870 o         1 MOL     -0.608140
     15 H4         -0.6840    3.6220    4.1430 hn        1 MOL      0.383384
     16 H5         -0.3120    2.3410    1.5070 h1        1 MOL      0.067358
     17 H6         -2.5800    1.9880    3.7190 hc        1 MOL      0.048956
     18 H7         -1.4800    0.7930    3.0190 hc        1 MOL      0.048956
     19 N2         -0.9670    4.5750    0.5050 n         1 MOL     -0.454395
     20 C7         -1.5660    5.6350   -0.3800 c3        1 MOL     -0.037134
     21 C8         -2.6410    5.2170   -1.4060 c         1 MOL      0.379838
     22 O5         -3.3450    6.1830   -1.8290 o         1 MOL     -0.555052
     23 C9         -0.6240    6.5970   -1.0570 c3        1 MOL     -0.074214
     24 C10         0.1500    7.5320   -0.0900 c3        1 MOL      0.055083
     25 C11         1.4720    8.1460   -0.6980 c3        1 MOL      0.041883
     26 C12         2.0320    9.3930   -0.0480 c3        1 MOL      0.003121
     27 N3          2.1540    9.2110    1.4310 n4        1 MOL     -0.268383
     28 H8          0.0090    4.3370    0.4570 hn        1 MOL      0.323515
     29 H9         -2.1610    6.2380    0.3060 h1        1 MOL      0.102101
     30 H10        -1.1100    7.3350   -1.6980 hc        1 MOL      0.073540
     31 H11         0.0930    6.1420   -1.7460 hc        1 MOL      0.073540
     32 H12         0.4160    7.0460    0.8520 hc        1 MOL     -0.027495
     33 H13        -0.4530    8.4120    0.1320 hc        1 MOL     -0.027495
     34 H14         1.3190    8.2880   -1.7630 hc        1 MOL      0.023489
     35 H15         2.2690    7.4100   -0.6510 hc        1 MOL      0.023489
     36 H16         1.3320   10.2040   -0.2230 hx        1 MOL      0.084889
     37 H17         2.9680    9.6720   -0.5330 hx        1 MOL      0.084889
     38 H18         1.3360    9.6270    1.8600 hn        1 MOL      0.304313
     39 H19         2.0680    8.2490    1.7190 hn        1 MOL      0.304313
     40 H20         2.9660    9.6580    1.8410 hn        1 MOL      0.304313
     41 N4         -2.8770    3.9870   -1.8140 n         1 MOL     -0.163195
     42 C13        -3.9570    3.5590   -2.6960 c3        1 MOL      0.051938
     43 C14        -5.1960    3.1030   -1.9030 c         1 MOL      0.454294
     44 O6         -6.2810    3.2800   -2.4390 o         1 MOL     -0.561219
     45 C15        -3.5440    2.5160   -3.7220 c3        1 MOL     -0.223251
     46 C16        -2.9680    1.2590   -3.0640 c         1 MOL      0.712734
     47 O7         -1.7560    1.2830   -2.7600 o         1 MOL     -0.732867
     48 O8         -3.6740    0.2560   -2.7830 o         1 MOL     -0.732867
     49 H21        -2.2460    3.2680   -1.4840 hn        1 MOL      0.209197
     50 H22        -4.2800    4.4240   -3.2580 h1        1 MOL      0.090232
     51 H23        -2.7360    3.0470   -4.2170 hc        1 MOL      0.063988
     52 H24        -4.2790    2.1560   -4.4440 hc        1 MOL      0.063988
     53 N5         -5.1140    2.6840   -0.6500 n         1 MOL      0.013614
     54 C17        -6.3390    2.4490    0.1560 c3        1 MOL     -0.309470
     55 C18        -6.9440    1.0260    0.0820 c         1 MOL      0.568898
     56 O9         -8.0610    0.7410    0.5490 o         1 MOL     -0.567055
     57 H25        -4.1940    2.5420   -0.2790 hn        1 MOL      0.011717
     58 H26        -7.1370    3.1660    0.0080 h1        1 MOL      0.150091
     59 H27        -6.0980    2.3910    1.2230 h1        1 MOL      0.150091
     60 N6         -6.2390   -0.0150   -0.5540 n         1 MOL     -0.230116
     61 C19        -6.7050   -1.4070   -0.8400 c3        1 MOL      0.060076
     62 C20        -6.6330   -2.3350    0.4590 c         1 MOL      0.372114
     63 O10        -7.1480   -3.4280    0.3880 o         1 MOL     -0.512567
     64 C21        -6.0630   -2.1410   -2.0070 c3        1 MOL     -0.462678
     65 C22        -4.5980   -2.5210   -1.8960 c         1 MOL      0.784546
     66 N7         -4.0600   -3.1510   -2.8880 n         1 MOL     -0.538040
     67 O11        -3.8360   -2.1870   -0.9440 o         1 MOL     -0.654926
     68 H28        -5.2950    0.1970   -0.8500 hn        1 MOL      0.076739
     69 H29        -7.7730   -1.3300   -1.0610 h1        1 MOL      0.114104
     70 H30        -6.2070   -1.4150   -2.8190 hc        1 MOL      0.150171
     71 H31        -6.5710   -3.0920   -2.0980 hc        1 MOL      0.150171
     72 H32        -4.6030   -3.2810   -3.7250 hn        1 MOL      0.278593
     73 H33        -3.0800   -3.3990   -2.8340 hn        1 MOL      0.278593
     74 N8         -5.9740   -1.9610    1.5750 n         1 MOL     -0.111466
     75 C23        -5.7930   -2.7450    2.8080 c3        1 MOL     -0.323569
     76 C24        -4.4980   -3.4540    3.1170 c         1 MOL      0.551195
     77 O12        -4.3270   -4.0090    4.2210 o         1 MOL     -0.567361
     78 H34        -5.5280   -1.0580    1.4920 hn        1 MOL      0.176822
     79 H35        -6.4740   -3.6010    2.7610 h1        1 MOL      0.148472
     80 H36        -5.9140   -2.1050    3.6780 h1        1 MOL      0.148472
     81 N9         -3.4690   -3.2340    2.2720 n         1 MOL     -0.149499
     82 C25        -2.0540   -3.7070    2.4680 c3        1 MOL     -0.090514
     83 C26        -0.9170   -2.6940    1.9990 c         1 MOL      0.652631
     84 O13        -1.0720   -1.9230    1.0660 o         1 MOL     -0.597059
     85 C27        -1.7910   -5.1210    1.8450 c3        1 MOL     -0.011732
     86 C28        -1.9520   -5.2820    0.3510 ca        1 MOL     -0.036602
     87 C29        -3.1890   -5.8060   -0.1670 ca        1 MOL     -0.161749
     88 C30        -0.8690   -5.0290   -0.5550 ca        1 MOL     -0.161749
     89 C31        -3.3000   -6.0110   -1.5780 ca        1 MOL     -0.172978
     90 C32        -1.0670   -5.1240   -1.8970 ca        1 MOL     -0.172978
     91 C33        -2.2700   -5.5940   -2.4350 ca        1 MOL      0.230189
     92 O14        -2.4620   -5.6700   -3.7620 oh        1 MOL     -0.501125
     93 H37        -3.5920   -2.6650    1.4410 hn        1 MOL      0.126759
     94 H38        -1.9990   -3.8620    3.5420 h1        1 MOL      0.071095
     95 H39        -2.4020   -5.8020    2.4330 hc        1 MOL      0.046977
     96 H40        -0.7820   -5.3960    2.1300 hc        1 MOL      0.046977
     97 H41        -3.9470   -5.9820    0.5870 ha        1 MOL      0.162239
     98 H42         0.1050   -4.7750   -0.1660 ha        1 MOL      0.162239
     99 H43        -4.2240   -6.3910   -2.0020 ha        1 MOL      0.120576
    100 H44        -0.3010   -4.8720   -2.6090 ha        1 MOL      0.120576
    101 H45        -1.7860   -5.3530   -4.3560 ho        1 MOL      0.383338
    102 N10         0.2860   -2.8670    2.5610 n         1 MOL     -0.435354
    103 C34         1.5000   -2.2860    2.0440 c3        1 MOL     -0.503025
    104 C35         2.6170   -3.3710    1.8620 c         1 MOL      0.752678
    105 O15         2.6130   -4.4430    2.4510 o         1 MOL     -0.573355
    106 C36         2.0910   -1.2500    2.9840 c3        1 MOL      0.046770
    107 C37         2.5410   -1.8180    4.4020 c3        1 MOL     -0.068333
    108 C38         1.0340   -0.1980    3.1470 c3        1 MOL     -0.126780
    109 C39         3.1450   -0.7890    5.3900 c3        1 MOL     -0.204309
    110 H46         0.2820   -3.6590    3.1840 hn        1 MOL      0.300029
    111 H47         1.3370   -1.9360    1.0240 h1        1 MOL      0.297637
    112 H48         3.0070   -0.7810    2.6230 hc        1 MOL      0.023431
    113 H49         3.3060   -2.5800    4.3080 hc        1 MOL      0.069438
    114 H50         1.6880   -2.2420    4.9460 hc        1 MOL      0.069438
    115 H51         0.7340    0.2020    2.1830 hc        1 MOL      0.068067
    116 H52         0.1510   -0.6110    3.6250 hc        1 MOL      0.068067
    117 H53         1.4200    0.5920    3.7870 hc        1 MOL      0.068067
    118 H54         2.3450   -0.0970    5.6680 hc        1 MOL      0.053889
    119 H55         3.3760   -1.2720    6.3380 hc        1 MOL      0.053889
    120 H56         3.9720   -0.2890    4.9050 hc        1 MOL      0.053889
    121 N11         3.4910   -3.0130    0.9550 n         1 MOL     -0.400244
    122 C40         4.6570   -3.8150    0.5160 c3        1 MOL     -0.059363
    123 C41         5.8190   -2.8770    0.2630 c         1 MOL      0.568860
    124 O16         5.8530   -1.6800    0.6170 o         1 MOL     -0.495190
    125 C42         4.2220   -4.5370   -0.8370 c3        1 MOL     -0.123094
    126 O17         3.6600   -3.5570   -1.7410 oh        1 MOL     -0.574803
    127 H57         3.4160   -2.1600    0.4160 hn        1 MOL      0.313101
    128 H58         5.0540   -4.5230    1.2430 h1        1 MOL      0.122116
    129 H59         3.4600   -5.3170   -0.7320 h1        1 MOL      0.112437
    130 H60         5.0620   -5.0090   -1.3390 h1        1 MOL      0.112437
    131 H61         3.7360   -3.8930   -2.6380 ho        1 MOL      0.413769
    132 N12         6.9610   -3.3500   -0.2300 n         1 MOL     -0.518933
    133 C43         8.2240   -2.5060   -0.1350 c3        1 MOL      0.208839
    134 C44         8.1720   -1.2870   -1.1260 c         1 MOL      0.503678
    135 O18         8.5620   -0.2240   -0.7710 o         1 MOL     -0.540230
    136 C45         9.5060   -3.3030   -0.4110 c3        1 MOL     -0.511665
    137 H62         6.9300   -4.2200   -0.7370 hn        1 MOL      0.287997
    138 H63         8.3270   -2.1300    0.8850 h1        1 MOL      0.093750
    139 H64        10.4160   -2.7090   -0.3090 hc        1 MOL      0.148107
    140 H65         9.4700   -4.0490    0.3790 hc        1 MOL      0.148107
    141 H66         9.4880   -3.7240   -1.4260 hc        1 MOL      0.148107
    142 N13         7.5450   -1.4180   -2.2890 n         1 MOL     -0.417890
    143 C46         7.2850   -0.2800   -3.1890 c3        1 MOL      0.127064
    144 C47         6.4980    0.8910   -2.5430 c         1 MOL      0.336403
    145 O19         6.6240    2.0610   -2.9310 o         1 MOL     -0.501927
    146 C48         6.5950   -0.8400   -4.4330 c3        1 MOL     -0.236332
    147 H67         7.2860   -2.3610   -2.5310 hn        1 MOL      0.256714
    148 H68         8.2400    0.0960   -3.5730 h1        1 MOL      0.090206
    149 H69         7.1000   -1.7750   -4.7000 hc        1 MOL      0.066255
    150 H70         5.5540   -1.0980   -4.2320 hc        1 MOL      0.066255
    151 H71         6.7010   -0.0670   -5.1930 hc        1 MOL      0.066255
    152 N14         5.5410    0.5820   -1.6730 n         1 MOL     -0.095203
    153 C49         4.8250    1.6050   -0.8930 c3        1 MOL     -0.175646
    154 C50         5.6080    2.1260    0.2930 c         1 MOL      0.447066
    155 O20         5.6000    3.3360    0.6140 o         1 MOL     -0.555134
    156 C51         3.4680    1.0220   -0.4400 c3        1 MOL      0.275171
    157 C52         2.6410    0.3660   -1.6190 c3        1 MOL     -0.029267
    158 C53         1.2070   -0.0440   -1.3330 c         1 MOL      0.798302
    159 O21         0.3390    0.7370   -0.8910 o         1 MOL     -0.823537
    160 O22         0.8230   -1.2020   -1.4110 o         1 MOL     -0.823537
    161 H72         5.4810   -0.4250   -1.6050 hn        1 MOL      0.190105
    162 H73         4.6030    2.4450   -1.5530 h1        1 MOL      0.124282
    163 H74         2.8560    1.8180   -0.0090 hc        1 MOL     -0.046500
    164 H75         3.5960    0.3080    0.3780 hc        1 MOL     -0.046500
    165 H76         3.2080   -0.5010   -1.9590 hc        1 MOL     -0.046190
    166 H77         2.6920    1.0790   -2.4420 hc        1 MOL     -0.046190
    167 N15         6.3420    1.2530    0.9940 n         1 MOL     -0.067671
    168 C54         6.9900    1.6920    2.2280 c3        1 MOL     -0.299962
    169 H78         7.0540    2.7800    2.2360 h1        1 MOL      0.112994
    170 H79         6.4060    1.3560    3.0850 h1        1 MOL      0.112994
    171 H80         7.9920    1.2690    2.2820 h1        1 MOL      0.112994
    172 H81         6.2350    0.2720    0.7810 hn        1 MOL      0.140823
    173 Ca1        -1.7480   -0.6530   -1.0960 Ca        1 MOL      1.719935
    174 O23        -1.3870   -2.1190   -3.3230 oh        1 MOL     -0.797697
    175 H82        -0.4300   -2.1820   -3.3890 ho        1 MOL      0.399768
    176 H83        -1.6670   -1.9070   -4.2100 ho        1 MOL      0.399768
@<TRIPOS>BOND
     1    1    2 1   
     2    1    4 1   
     3    1    5 1   
     4    1    6 1   
     5    2    3 2   
     6    2    7 1   
     7    7    8 1   
     8    7   15 1   
     9    8    9 1   
    10    8   11 1   
    11    8   16 1   
    12    9   10 2   
    13    9   19 1   
    14   11   12 1   
    15   11   17 1   
    16   11   18 1   
    17   12   13 1   
    18   12   14 1   
    19   19   20 1   
    20   19   28 1   
    21   20   21 1   
    22   20   23 1   
    23   20   29 1   
    24   21   22 2   
    25   21   41 1   
    26   23   24 1   
    27   23   30 1   
    28   23   31 1   
    29   24   25 1   
    30   24   32 1   
    31   24   33 1   
    32   25   26 1   
    33   25   34 1   
    34   25   35 1   
    35   26   27 1   
    36   26   36 1   
    37   26   37 1   
    38   27   38 1   
    39   27   39 1   
    40   27   40 1   
    41   41   42 1   
    42   41   49 1   
    43   42   43 1   
    44   42   45 1   
    45   42   50 1   
    46   43   44 2   
    47   43   53 1   
    48   45   46 1   
    49   45   51 1   
    50   45   52 1   
    51   46   47 1   
    52   46   48 1   
    53   53   54 1   
    54   53   57 1   
    55   54   55 1   
    56   54   58 1   
    57   54   59 1   
    58   55   56 2   
    59   55   60 1   
    60   60   61 1   
    61   60   68 1   
    62   61   62 1   
    63   61   64 1   
    64   61   69 1   
    65   62   63 2   
    66   62   74 1   
    67   64   65 1   
    68   64   70 1   
    69   64   71 1   
    70   65   66 1   
    71   65   67 2   
    72   66   72 1   
    73   66   73 1   
    74   74   75 1   
    75   74   78 1   
    76   75   76 1   
    77   75   79 1   
    78   75   80 1   
    79   76   77 2   
    80   76   81 1   
    81   81   82 1   
    82   81   93 1   
    83   82   83 1   
    84   82   85 1   
    85   82   94 1   
    86   83   84 2   
    87   83  102 1   
    88   85   86 1   
    89   85   95 1   
    90   85   96 1   
    91   86   87 ar  
    92   86   88 ar  
    93   87   89 ar  
    94   87   97 1   
    95   88   90 ar  
    96   88   98 1   
    97   89   91 ar  
    98   89   99 1   
    99   90   91 ar  
   100   90  100 1   
   101   91   92 1   
   102   92  101 1   
   103  102  103 1   
   104  102  110 1   
   105  103  104 1   
   106  103  106 1   
   107  103  111 1   
   108  104  105 2   
   109  104  121 1   
   110  106  107 1   
   111  106  108 1   
   112  106  112 1   
   113  107  109 1   
   114  107  113 1   
   115  107  114 1   
   116  108  115 1   
   117  108  116 1   
   118  108  117 1   
   119  109  118 1   
   120  109  119 1   
   121  109  120 1   
   122  121  122 1   
   123  121  127 1   
   124  122  123 1   
   125  122  125 1   
   126  122  128 1   
   127  123  124 2   
   128  123  132 1   
   129  125  126 1   
   130  125  129 1   
   131  125  130 1   
   132  126  131 1   
   133  132  133 1   
   134  132  137 1   
   135  133  134 1   
   136  133  136 1   
   137  133  138 1   
   138  134  135 2   
   139  134  142 1   
   140  136  139 1   
   141  136  140 1   
   142  136  141 1   
   143  142  143 1   
   144  142  147 1   
   145  143  144 1   
   146  143  146 1   
   147  143  148 1   
   148  144  145 2   
   149  144  152 1   
   150  146  149 1   
   151  146  150 1   
   152  146  151 1   
   153  152  153 1   
   154  152  161 1   
   155  153  154 1   
   156  153  156 1   
   157  153  162 1   
   158  154  155 2   
   159  154  167 1   
   160  156  157 1   
   161  156  163 1   
   162  156  164 1   
   163  157  158 1   
   164  157  165 1   
   165  157  166 1   
   166  158  159 1   
   167  158  160 1   
   168  167  168 1   
   169  167  172 1   
   170  168  169 1   
   171  168  170 1   
   172  168  171 1   
   173  174  175 1   
   174  174  176 1   
@<TRIPOS>SUBSTRUCTURE
     1 MOL         1 TEMP              0 ****  ****    0 ROOT
