@<TRIPOS>MOLECULE
MOL
  189   185     1     0     0
SMALL
resp


@<TRIPOS>ATOM
      1 C1         -0.2350    0.3380    6.8010 c3        1 MOL     -0.406795
      2 C2         -0.4970    0.6080    5.2290 c         1 MOL      0.642597
      3 O1          0.3620    1.0940    4.5540 o         1 MOL     -0.535707
      4 H1          0.2200    1.2210    7.2500 hc        1 MOL      0.104588
      5 H2         -1.1810    0.1260    7.2980 hc        1 MOL      0.104588
      6 H3          0.4360   -0.5130    6.9180 hc        1 MOL      0.104588
      7 N1         -1.7910    0.4650    4.8630 n         1 MOL     -0.602229
      8 C3         -2.2120    0.6740    3.4690 c3        1 MOL      0.225953
      9 C4         -2.4130    2.1700    3.2360 c         1 MOL      0.564748
     10 O2         -3.3360    2.7580    3.7530 o         1 MOL     -0.555695
     11 C5         -3.4900   -0.0790    3.2210 c3        1 MOL     -0.235779
     12 C6         -4.0170   -0.0170    1.7750 c         1 MOL      0.732942
     13 O3         -3.2980    0.5870    0.8990 o         1 MOL     -0.647326
     14 O4         -5.0920   -0.5690    1.5360 o         1 MOL     -0.647326
     15 H4         -2.3670    0.0370    5.5660 hn        1 MOL      0.334134
     16 H5         -1.5310    0.2380    2.7360 h1        1 MOL     -0.035324
     17 H6         -4.2600    0.3010    3.9080 hc        1 MOL      0.057634
     18 H7         -3.4310   -1.1370    3.4630 hc        1 MOL      0.057634
     19 N2         -1.6220    2.8080    2.3210 n         1 MOL     -0.327603
     20 C7         -1.6500    4.2570    2.1790 c3        1 MOL      0.068773
     21 C8         -2.7680    4.7110    1.2670 c         1 MOL      0.340447
     22 O5         -3.2170    5.8760    1.3060 o         1 MOL     -0.557836
     23 C9         -0.2280    4.7220    1.6700 c3        1 MOL      0.029794
     24 C10        -0.0870    6.1810    1.4860 c3        1 MOL     -0.064872
     25 C11        -0.1660    6.4260   -0.0100 c3        1 MOL      0.087487
     26 C12        -0.4030    7.9340   -0.2960 c3        1 MOL     -0.054708
     27 N3         -0.3330    8.3220   -1.7470 n4        1 MOL     -0.282510
     28 H8         -0.9120    2.2920    1.8120 hn        1 MOL      0.146386
     29 H9         -1.7470    4.7750    3.1370 h1        1 MOL      0.082586
     30 H10         0.0770    4.1870    0.7720 hc        1 MOL      0.032652
     31 H11         0.4170    4.3560    2.4760 hc        1 MOL      0.032652
     32 H12         0.8520    6.5890    1.8740 hc        1 MOL      0.016040
     33 H13        -0.8600    6.7900    1.9510 hc        1 MOL      0.016040
     34 H14        -0.9370    5.7540   -0.3870 hc        1 MOL     -0.023150
     35 H15         0.7510    6.0600   -0.4660 hc        1 MOL     -0.023150
     36 H16         0.4460    8.4330    0.1760 hx        1 MOL      0.105232
     37 H17        -1.3920    8.1420    0.1200 hx        1 MOL      0.105232
     38 H18        -0.5090    9.3140   -1.8060 hn        1 MOL      0.305131
     39 H19         0.5390    8.1240   -2.1930 hn        1 MOL      0.305131
     40 H20        -1.0610    7.8870   -2.2890 hn        1 MOL      0.305131
     41 N4         -3.0940    3.9250    0.1980 n         1 MOL     -0.096842
     42 C13        -4.1450    4.2960   -0.7810 c3        1 MOL      0.113778
     43 C14        -5.4920    3.5290   -0.6520 c         1 MOL      0.354505
     44 O6         -6.4970    3.8070   -1.3850 o         1 MOL     -0.518369
     45 C15        -3.6130    4.2170   -2.1890 c3        1 MOL     -0.259453
     46 C16        -2.9390    2.9280   -2.7000 c         1 MOL      0.823733
     47 O7         -2.5200    2.8480   -3.8770 o         1 MOL     -0.705795
     48 O8         -2.8220    1.9490   -1.9340 o         1 MOL     -0.705795
     49 H21        -2.6490    3.0180    0.0730 hn        1 MOL      0.089093
     50 H22        -4.3820    5.3370   -0.5550 h1        1 MOL      0.065555
     51 H23        -2.8210    4.9690   -2.2040 hc        1 MOL      0.039289
     52 H24        -4.4320    4.5730   -2.8110 hc        1 MOL      0.039289
     53 N5         -5.6440    2.5960    0.2350 n         1 MOL     -0.204026
     54 C17        -6.9420    1.9070    0.5730 c3        1 MOL     -0.127756
     55 C18        -7.3890    0.9740   -0.5400 c         1 MOL      0.478355
     56 O9         -8.6430    0.9630   -0.8520 o         1 MOL     -0.560114
     57 H25        -4.7950    2.1300    0.5190 hn        1 MOL      0.159649
     58 H26        -7.7420    2.6280    0.7460 h1        1 MOL      0.101019
     59 H27        -6.7090    1.3340    1.4690 h1        1 MOL      0.101019
     60 N6         -6.4720    0.1820   -1.1780 n         1 MOL     -0.164732
     61 C19        -6.8110   -0.8660   -2.1240 c3        1 MOL     -0.074492
     62 C20        -6.8220   -2.2460   -1.5190 c         1 MOL      0.488120
     63 O10        -7.2350   -3.2150   -2.2270 o         1 MOL     -0.548462
     64 C21        -5.8250   -0.7890   -3.2710 c3        1 MOL     -0.180039
     65 C22        -4.3730   -0.9120   -2.7850 c         1 MOL      0.703790
     66 O11        -4.1760   -1.2980   -1.6210 o         1 MOL     -0.683152
     67 O12        -3.4160   -0.5130   -3.4730 o         1 MOL     -0.683152
     68 H28        -5.5730    0.2600   -0.7200 hn        1 MOL      0.139401
     69 H29        -7.8020   -0.6490   -2.5190 h1        1 MOL      0.127923
     70 H30        -5.9030    0.2140   -3.7040 hc        1 MOL      0.070174
     71 H31        -6.0730   -1.4640   -4.0930 hc        1 MOL      0.070174
     72 N7         -6.5630   -2.4270   -0.1890 n         1 MOL     -0.368343
     73 C23        -6.5810   -3.7550    0.3210 c3        1 MOL     -0.023258
     74 C24        -5.2720   -4.5540    0.1070 c         1 MOL      0.516346
     75 O13        -5.2940   -5.7530    0.3400 o         1 MOL     -0.564227
     76 H32        -6.1150   -1.6740    0.3100 hn        1 MOL      0.266685
     77 H33        -7.3840   -4.3050   -0.1750 h1        1 MOL      0.071831
     78 H34        -6.7890   -3.8460    1.3830 h1        1 MOL      0.071831
     79 N8         -4.1950   -3.8330   -0.2790 n         1 MOL     -0.297526
     80 C25        -2.8570   -4.4580   -0.4240 c3        1 MOL     -0.089804
     81 C26        -1.6780   -3.6800    0.0100 c         1 MOL      0.852209
     82 O14        -1.8050   -2.4870    0.2480 o         1 MOL     -0.744782
     83 C27        -2.6080   -5.0060   -1.8580 c3        1 MOL      0.268960
     84 C28        -3.4350   -6.2950   -2.1150 c3        1 MOL     -0.555743
     85 O15        -3.0880   -4.1990   -2.8880 oh        1 MOL     -0.568662
     86 H35        -4.2980   -2.8840   -0.5810 hn        1 MOL      0.224364
     87 H36        -2.9680   -5.3550    0.1980 h1        1 MOL      0.081439
     88 H37        -1.5630   -5.2180   -2.0960 h1        1 MOL      0.064025
     89 H38        -3.9340   -4.5800   -3.1410 ho        1 MOL      0.395085
     90 H39        -4.4880   -6.0420   -2.2280 hc        1 MOL      0.153531
     91 H40        -2.9810   -6.7630   -2.9890 hc        1 MOL      0.153531
     92 H41        -3.4650   -7.0590   -1.3340 hc        1 MOL      0.153531
     93 N9         -0.5690   -4.3210    0.2660 n         1 MOL     -0.725074
     94 C29         0.7010   -3.6710    0.6300 c3        1 MOL      0.315975
     95 C30         1.7810   -3.7780   -0.4630 c         1 MOL      0.401384
     96 O16         2.0510   -4.8650   -0.9760 o         1 MOL     -0.541767
     97 C31         1.1830   -4.3660    1.9610 c3        1 MOL      0.158686
     98 C32         0.1850   -4.3920    3.1550 c3        1 MOL      0.016470
     99 C33         2.4910   -3.8110    2.4890 c3        1 MOL     -0.292121
    100 C34        -0.0860   -3.0030    3.7620 c3        1 MOL     -0.043838
    101 H42        -0.5770   -5.3360    0.1810 hn        1 MOL      0.290103
    102 H43         0.5240   -2.6350    0.8920 h1        1 MOL      0.094282
    103 H44         1.4210   -5.4060    1.7260 hc        1 MOL     -0.015617
    104 H45         0.4530   -5.1210    3.9210 hc        1 MOL     -0.009059
    105 H46        -0.7530   -4.7590    2.7330 hc        1 MOL     -0.009059
    106 H47         3.1700   -4.0900    1.6760 hc        1 MOL      0.051576
    107 H48         2.4820   -2.7560    2.7500 hc        1 MOL      0.051576
    108 H49         2.6950   -4.2960    3.4450 hc        1 MOL      0.051576
    109 H50        -1.0230   -2.9150    4.3180 hc        1 MOL      0.013956
    110 H51         0.7620   -2.7080    4.3880 hc        1 MOL      0.013956
    111 H52        -0.0890   -2.1550    3.0700 hc        1 MOL      0.013956
    112 N10         2.3830   -2.6580   -0.8200 n         1 MOL      0.040107
    113 C35         3.5690   -2.5240   -1.7260 c3        1 MOL      0.021724
    114 C36         4.9410   -2.5350   -0.9780 c         1 MOL      0.349588
    115 O17         4.9600   -2.5170    0.2550 o         1 MOL     -0.269002
    116 C37         3.4550   -1.1870   -2.4400 c3        1 MOL      0.331954
    117 C38         2.4580   -1.2980   -3.6440 c3        1 MOL     -0.362424
    118 O18         3.0200   -0.0820   -1.6470 oh        1 MOL     -0.581497
    119 H53         2.2250   -1.8430   -0.2530 hn        1 MOL     -0.349794
    120 H54         3.6010   -3.3530   -2.4390 h1        1 MOL      0.055665
    121 H55         4.4270   -1.0340   -2.8980 h1        1 MOL     -0.016093
    122 H56         2.1140   -0.3110   -1.3970 ho        1 MOL      0.420808
    123 H57         2.9540   -1.8380   -4.4520 hc        1 MOL      0.094119
    124 H58         1.5720   -1.8470   -3.3360 hc        1 MOL      0.094119
    125 H59         2.2220   -0.3090   -4.0150 hc        1 MOL      0.094119
    126 N11         6.1500   -2.4740   -1.6580 n         1 MOL     -0.359551
    127 C39         7.4650   -2.2770   -1.0490 c3        1 MOL     -0.124157
    128 C40         7.5140   -1.0770   -0.0910 c         1 MOL      0.211600
    129 O19         7.9250   -1.1770    1.0740 o         1 MOL     -0.445604
    130 C41         8.6040   -2.1650   -2.0130 c3        1 MOL      0.294291
    131 C42         9.1040   -3.3560   -2.8520 c3        1 MOL     -0.448239
    132 O20         8.3530   -1.0690   -2.8870 oh        1 MOL     -0.686175
    133 H60         6.0980   -2.3010   -2.6540 hn        1 MOL      0.241125
    134 H61         7.7310   -3.1750   -0.4900 h1        1 MOL      0.149654
    135 H62         9.4810   -1.7350   -1.5370 h1        1 MOL      0.108490
    136 H63         8.1340   -1.3710   -3.7650 ho        1 MOL      0.409909
    137 H64         9.5710   -3.9900   -2.0930 hc        1 MOL      0.133865
    138 H65         8.3450   -3.8510   -3.4570 hc        1 MOL      0.133865
    139 H66         9.9230   -2.9830   -3.4670 hc        1 MOL      0.133865
    140 N12         6.9620    0.0840   -0.5200 n         1 MOL      0.024780
    141 C43         6.9200    1.2430    0.3510 c3        1 MOL     -0.122933
    142 C44         5.9940    1.1720    1.5560 c         1 MOL      0.410466
    143 O21         6.3570    1.6170    2.6210 o         1 MOL     -0.493962
    144 C45         6.5720    2.4760   -0.4530 c3        1 MOL     -0.094095
    145 C46         7.6740    2.7680   -1.4860 c3        1 MOL      0.090013
    146 C47         7.2850    4.0050   -2.2940 c3        1 MOL     -0.057398
    147 C48         8.0290    4.0920   -3.6170 c3        1 MOL      0.006442
    148 N13         7.8660    5.4020   -4.3000 n4        1 MOL     -0.171443
    149 H67         6.5070    0.1210   -1.4240 hn        1 MOL      0.201870
    150 H68         7.9660    1.4900    0.5850 h1        1 MOL      0.106560
    151 H69         6.5300    3.3520    0.1960 hc        1 MOL      0.047511
    152 H70         5.5860    2.4960   -0.9260 hc        1 MOL      0.047511
    153 H71         7.7580    1.9140   -2.1680 hc        1 MOL     -0.000045
    154 H72         8.6690    2.8580   -1.0370 hc        1 MOL     -0.000045
    155 H73         7.6010    4.9210   -1.7760 hc        1 MOL      0.032773
    156 H74         6.2160    4.0320   -2.4700 hc        1 MOL      0.032773
    157 H75         7.5380    3.3240   -4.2230 hx        1 MOL      0.081651
    158 H76         9.1030    3.9220   -3.5410 hx        1 MOL      0.081651
    159 H77         6.9820    5.8650   -4.1720 hn        1 MOL      0.252294
    160 H78         8.3560    6.1640   -3.8460 hn        1 MOL      0.252294
    161 H79         8.1730    5.4870   -5.2610 hn        1 MOL      0.252294
    162 N14         4.8290    0.5700    1.3720 n         1 MOL     -0.113239
    163 C49         3.8160    0.3850    2.4400 c3        1 MOL     -0.240640
    164 C50         4.3540   -0.6330    3.4970 c         1 MOL      0.474842
    165 O22         4.2050   -0.4150    4.7110 o         1 MOL     -0.543932
    166 C51         2.5170   -0.1210    1.8700 c3        1 MOL      0.050031
    167 C52         1.7650    1.0860    1.2340 c3        1 MOL      0.075864
    168 C53         0.5640    0.6330    0.4270 c         1 MOL      0.526242
    169 O23         0.5130   -0.4330   -0.2270 o         1 MOL     -0.562512
    170 O24        -0.3270    1.4570    0.2300 o         1 MOL     -0.562512
    171 H80         4.5620    0.2970    0.4330 hn        1 MOL      0.119437
    172 H81         3.7390    1.3460    2.9350 h1        1 MOL      0.137258
    173 H82         1.8540   -0.5070    2.6410 hc        1 MOL      0.068738
    174 H83         2.7360   -0.9980    1.2390 hc        1 MOL      0.068738
    175 H84         2.4440    1.5080    0.4900 hc        1 MOL     -0.024032
    176 H85         1.4610    1.9470    1.8330 hc        1 MOL     -0.024032
    177 N15         4.9810   -1.7490    3.1080 n         1 MOL      0.040420
    178 C54         5.8020   -2.5800    3.9670 c3        1 MOL     -0.299531
    179 H86         6.5230   -1.9560    4.4950 h1        1 MOL      0.105297
    180 H87         5.1680   -3.0930    4.6900 h1        1 MOL      0.105297
    181 H88         6.3330   -3.3150    3.3620 h1        1 MOL      0.105297
    182 H89         4.8880   -1.9700    2.1330 hn        1 MOL      0.044755
    183 Ca1        -1.9430   -0.2230   -1.0490 Ca        1 MOL      1.691530
    184 O25        -0.7170    1.0080   -3.2260 oh        1 MOL     -0.895998
    185 H90        -1.4410    1.5730   -3.4930 ho        1 MOL      0.408151
    186 H91        -0.6490    0.3610   -3.9300 ho        1 MOL      0.408151
    187 O26        -1.2130   -2.2540   -2.7670 oh        1 MOL     -0.895998
    188 H92        -0.7640   -2.3820   -3.6020 ho        1 MOL      0.408151
    189 H93        -2.0070   -2.7840   -2.8320 ho        1 MOL      0.408151
@<TRIPOS>BOND
     1    1    2 1   
     2    1    4 1   
     3    1    5 1   
     4    1    6 1   
     5    2    3 2   
     6    2    7 1   
     7    7    8 1   
     8    7   15 1   
     9    8    9 1   
    10    8   11 1   
    11    8   16 1   
    12    9   10 2   
    13    9   19 1   
    14   11   12 1   
    15   11   17 1   
    16   11   18 1   
    17   12   13 1   
    18   12   14 1   
    19   19   20 1   
    20   19   28 1   
    21   20   21 1   
    22   20   23 1   
    23   20   29 1   
    24   21   22 2   
    25   21   41 1   
    26   23   24 1   
    27   23   30 1   
    28   23   31 1   
    29   24   25 1   
    30   24   32 1   
    31   24   33 1   
    32   25   26 1   
    33   25   34 1   
    34   25   35 1   
    35   26   27 1   
    36   26   36 1   
    37   26   37 1   
    38   27   38 1   
    39   27   39 1   
    40   27   40 1   
    41   41   42 1   
    42   41   49 1   
    43   42   43 1   
    44   42   45 1   
    45   42   50 1   
    46   43   44 2   
    47   43   53 1   
    48   45   46 1   
    49   45   51 1   
    50   45   52 1   
    51   46   47 1   
    52   46   48 1   
    53   53   54 1   
    54   53   57 1   
    55   54   55 1   
    56   54   58 1   
    57   54   59 1   
    58   55   56 2   
    59   55   60 1   
    60   60   61 1   
    61   60   68 1   
    62   61   62 1   
    63   61   64 1   
    64   61   69 1   
    65   62   63 2   
    66   62   72 1   
    67   64   65 1   
    68   64   70 1   
    69   64   71 1   
    70   65   66 1   
    71   65   67 1   
    72   72   73 1   
    73   72   76 1   
    74   73   74 1   
    75   73   77 1   
    76   73   78 1   
    77   74   75 2   
    78   74   79 1   
    79   79   80 1   
    80   79   86 1   
    81   80   81 1   
    82   80   83 1   
    83   80   87 1   
    84   81   82 2   
    85   81   93 1   
    86   83   84 1   
    87   83   85 1   
    88   83   88 1   
    89   84   90 1   
    90   84   91 1   
    91   84   92 1   
    92   85   89 1   
    93   93   94 1   
    94   93  101 1   
    95   94   95 1   
    96   94   97 1   
    97   94  102 1   
    98   95   96 2   
    99   95  112 1   
   100   97   98 1   
   101   97   99 1   
   102   97  103 1   
   103   98  100 1   
   104   98  104 1   
   105   98  105 1   
   106   99  106 1   
   107   99  107 1   
   108   99  108 1   
   109  100  109 1   
   110  100  110 1   
   111  100  111 1   
   112  112  113 1   
   113  112  119 1   
   114  113  114 1   
   115  113  116 1   
   116  113  120 1   
   117  114  115 2   
   118  114  126 1   
   119  116  117 1   
   120  116  118 1   
   121  116  121 1   
   122  117  123 1   
   123  117  124 1   
   124  117  125 1   
   125  118  122 1   
   126  126  127 1   
   127  126  133 1   
   128  127  128 1   
   129  127  130 1   
   130  127  134 1   
   131  128  129 2   
   132  128  140 1   
   133  130  131 1   
   134  130  132 1   
   135  130  135 1   
   136  131  137 1   
   137  131  138 1   
   138  131  139 1   
   139  132  136 1   
   140  140  141 1   
   141  140  149 1   
   142  141  142 1   
   143  141  144 1   
   144  141  150 1   
   145  142  143 2   
   146  142  162 1   
   147  144  145 1   
   148  144  151 1   
   149  144  152 1   
   150  145  146 1   
   151  145  153 1   
   152  145  154 1   
   153  146  147 1   
   154  146  155 1   
   155  146  156 1   
   156  147  148 1   
   157  147  157 1   
   158  147  158 1   
   159  148  159 1   
   160  148  160 1   
   161  148  161 1   
   162  162  163 1   
   163  162  171 1   
   164  163  164 1   
   165  163  166 1   
   166  163  172 1   
   167  164  165 2   
   168  164  177 1   
   169  166  167 1   
   170  166  173 1   
   171  166  174 1   
   172  167  168 1   
   173  167  175 1   
   174  167  176 1   
   175  168  169 1   
   176  168  170 1   
   177  177  178 1   
   178  177  182 1   
   179  178  179 1   
   180  178  180 1   
   181  178  181 1   
   182  184  185 1   
   183  184  186 1   
   184  187  188 1   
   185  187  189 1   
@<TRIPOS>SUBSTRUCTURE
     1 MOL         1 TEMP              0 ****  ****    0 ROOT
