@<TRIPOS>MOLECULE
MOL
  179   176     1     0     0
SMALL
resp


@<TRIPOS>ATOM
      1 C1          1.8230    3.9490    4.5980 c3        1 MOL     -0.249868
      2 C2          1.1180    3.4190    3.3350 c         1 MOL      0.691360
      3 O1          1.7980    3.2360    2.3370 o         1 MOL     -0.561192
      4 H1          2.7860    3.4500    4.7130 hc        1 MOL      0.054449
      5 H2          1.9800    5.0240    4.5040 hc        1 MOL      0.054449
      6 H3          1.2030    3.7460    5.4720 hc        1 MOL      0.054449
      7 N1         -0.1710    3.0990    3.4410 n         1 MOL     -0.634564
      8 C3         -1.0040    2.7360    2.2940 c3        1 MOL      0.014483
      9 C4         -1.5750    4.0080    1.6060 c         1 MOL      0.618411
     10 O2         -2.7000    4.4120    1.7870 o         1 MOL     -0.508902
     11 C5         -2.0870    1.7740    2.7080 c3        1 MOL     -0.022220
     12 C6         -2.7460    1.1220    1.4920 c         1 MOL      0.725474
     13 O3         -3.8120    0.4730    1.5940 o         1 MOL     -0.737584
     14 O4         -2.2460    1.2400    0.3450 o         1 MOL     -0.737584
     15 H4         -0.6440    3.1830    4.3270 hn        1 MOL      0.352735
     16 H5         -0.4570    2.0440    1.6510 h1        1 MOL      0.061450
     17 H6         -2.8060    2.2060    3.4100 hc        1 MOL      0.007442
     18 H7         -1.6500    0.9530    3.2870 hc        1 MOL      0.007442
     19 N2         -0.7490    4.7300    0.8170 n         1 MOL     -0.588453
     20 C7         -1.1620    6.0430    0.3250 c3        1 MOL      0.105619
     21 C8         -2.2090    6.0270   -0.7880 c         1 MOL      0.403431
     22 O5         -2.9140    6.9880   -0.9360 o         1 MOL     -0.535030
     23 C9         -0.0400    6.9780   -0.1980 c3        1 MOL     -0.312173
     24 C10         0.9240    7.3020    0.9390 c3        1 MOL      0.276842
     25 C11         2.0190    8.2020    0.3350 c3        1 MOL      0.158838
     26 C12         3.1230    8.5340    1.3990 c3        1 MOL     -0.060906
     27 N3          2.6910    8.7610    2.7380 n4        1 MOL     -0.339077
     28 H8          0.1870    4.4080    0.6180 hn        1 MOL      0.377221
     29 H9         -1.7410    6.5170    1.1190 h1        1 MOL      0.081633
     30 H10        -0.4420    7.9370   -0.5090 hc        1 MOL      0.115856
     31 H11         0.4740    6.4410   -0.9980 hc        1 MOL      0.115856
     32 H12         1.4230    6.4520    1.3900 hc        1 MOL     -0.085339
     33 H13         0.3900    7.8140    1.7270 hc        1 MOL     -0.085339
     34 H14         1.5980    9.1750    0.0770 hc        1 MOL     -0.019143
     35 H15         2.3770    7.7850   -0.6050 hc        1 MOL     -0.019143
     36 H16         3.6220    9.4060    0.9870 hx        1 MOL      0.088048
     37 H17         3.7530    7.6470    1.4170 hx        1 MOL      0.088048
     38 H18         3.5700    8.9910    3.1790 hn        1 MOL      0.328968
     39 H19         2.0310    9.5220    2.7550 hn        1 MOL      0.328968
     40 H20         2.3450    7.9060    3.1360 hn        1 MOL      0.328968
     41 N4         -2.2130    4.9860   -1.6100 n         1 MOL     -0.248742
     42 C13        -3.3300    4.7130   -2.5600 c3        1 MOL     -0.047340
     43 C14        -4.6870    4.3170   -1.8060 c         1 MOL      0.407337
     44 O6         -5.7370    4.3840   -2.4500 o         1 MOL     -0.474270
     45 C15        -2.9680    3.7520   -3.6090 c3        1 MOL     -0.190187
     46 C16        -2.3210    2.3780   -3.0710 c         1 MOL      0.834546
     47 O7         -1.1470    2.3090   -2.6660 o         1 MOL     -0.734858
     48 O8         -3.0110    1.3560   -3.1360 o         1 MOL     -0.734858
     49 H21        -1.3980    4.4180   -1.4630 hn        1 MOL      0.194964
     50 H22        -3.6080    5.6330   -3.0850 h1        1 MOL      0.112136
     51 H23        -2.2090    4.1340   -4.2810 hc        1 MOL      0.047512
     52 H24        -3.8210    3.5520   -4.2580 hc        1 MOL      0.047512
     53 N5         -4.5570    3.8480   -0.5210 n         1 MOL     -0.059974
     54 C17        -5.6790    3.3350    0.2650 c3        1 MOL     -0.205171
     55 C18        -6.3460    2.0610   -0.3680 c         1 MOL      0.539209
     56 O9         -7.4930    2.2290   -0.8090 o         1 MOL     -0.566039
     57 H25        -3.6120    3.7120   -0.2040 hn        1 MOL      0.098434
     58 H26        -6.4240    4.1180    0.3290 h1        1 MOL      0.098969
     59 H27        -5.3200    3.0030    1.2310 h1        1 MOL      0.098969
     60 N6         -5.6980    0.9210   -0.4820 n         1 MOL     -0.215607
     61 C19        -6.3080   -0.2270   -1.0590 c3        1 MOL     -0.198064
     62 C20        -6.3230   -1.4520   -0.1180 c         1 MOL      0.408702
     63 O10        -6.6760   -2.5310   -0.6130 o         1 MOL     -0.472380
     64 C21        -5.6700   -0.4150   -2.4130 c3        1 MOL      0.160192
     65 C22        -4.5530   -1.3760   -2.5690 c         1 MOL      0.295688
     66 N7         -4.6520   -2.2570   -3.5030 n         1 MOL     -0.535709
     67 O11        -3.6210   -1.3870   -1.7580 o         1 MOL     -0.561453
     68 H28        -4.7880    0.9530   -0.0260 hn        1 MOL      0.118528
     69 H29        -7.3440    0.0230   -1.2930 h1        1 MOL      0.152975
     70 H30        -5.3260    0.5330   -2.8230 hc        1 MOL      0.029389
     71 H31        -6.4800   -0.6480   -3.1020 hc        1 MOL      0.029389
     72 H32        -5.4060   -2.2400   -4.1800 hn        1 MOL      0.313679
     73 H33        -3.8040   -2.7960   -3.5760 hn        1 MOL      0.313679
     74 N8         -5.9590   -1.2800    1.1450 n         1 MOL     -0.283934
     75 C23        -6.0440   -2.3760    2.1160 c3        1 MOL     -0.313842
     76 C24        -4.7660   -3.2990    2.2070 c         1 MOL      0.572636
     77 O12        -4.7560   -4.2750    2.9590 o         1 MOL     -0.524564
     78 H34        -5.3260   -0.5120    1.3150 hn        1 MOL      0.291497
     79 H35        -6.8540   -3.0600    1.8690 h1        1 MOL      0.155753
     80 H36        -6.2410   -1.9530    3.1040 h1        1 MOL      0.155753
     81 N9         -3.7670   -2.8770    1.4060 n         1 MOL     -0.605879
     82 C25        -2.5220   -3.6740    1.2180 c3        1 MOL      0.206414
     83 C26        -1.4210   -2.6810    0.9960 c         1 MOL      0.419088
     84 O13        -1.5680   -1.6040    0.4150 o         1 MOL     -0.595453
     85 C27        -2.6310   -4.6090   -0.0200 c3        1 MOL     -0.102611
     86 C28        -3.7230   -5.6550    0.2510 ca        1 MOL      0.035857
     87 C29        -4.9810   -5.3920   -0.2350 ca        1 MOL     -0.203452
     88 C30        -3.5270   -6.7370    1.0770 ca        1 MOL     -0.203452
     89 C31        -6.1120   -6.2310    0.1140 ca        1 MOL     -0.181071
     90 C32        -4.5630   -7.5550    1.4920 ca        1 MOL     -0.181071
     91 C33        -5.8960   -7.3330    1.0190 ca        1 MOL      0.259153
     92 O14        -6.9310   -7.9810    1.5710 oh        1 MOL     -0.476221
     93 H37        -3.9780   -2.1040    0.7940 hn        1 MOL      0.591763
     94 H38        -2.2730   -4.1830    2.1460 h1        1 MOL      0.062604
     95 H39        -1.6340   -5.0340   -0.1700 hc        1 MOL      0.044422
     96 H40        -2.8400   -3.9730   -0.8840 hc        1 MOL      0.044422
     97 H41        -5.1860   -4.5670   -0.9030 ha        1 MOL      0.128661
     98 H42        -2.5200   -6.8700    1.4480 ha        1 MOL      0.128661
     99 H43        -7.0930   -5.8330   -0.0570 ha        1 MOL      0.125846
    100 H44        -4.3960   -8.3830    2.1620 ha        1 MOL      0.125846
    101 H45        -6.7120   -8.6020    2.2680 ho        1 MOL      0.377921
    102 N10        -0.1880   -3.1450    1.4140 n         1 MOL     -0.346775
    103 C34         1.1400   -2.5530    1.0840 c3        1 MOL      0.016388
    104 C35         2.1930   -3.5810    0.7250 c         1 MOL      0.455816
    105 O15         2.1610   -4.7130    1.0240 o         1 MOL     -0.556075
    106 C36         1.6790   -1.6250    2.2190 c3        1 MOL     -0.215394
    107 C37         2.2160   -2.4880    3.3570 c3        1 MOL     -0.073357
    108 C38         0.6260   -0.6550    2.7370 c3        1 MOL      0.056537
    109 C39         2.4170   -1.7260    4.6710 c3        1 MOL     -0.387516
    110 H46        -0.1470   -3.9730    1.9980 hn        1 MOL      0.246343
    111 H47         0.9670   -2.0050    0.1600 h1        1 MOL      0.091439
    112 H48         2.5380   -1.0520    1.8760 hc        1 MOL      0.106377
    113 H49         3.1590   -2.9260    3.0410 hc        1 MOL      0.069528
    114 H50         1.5510   -3.3090    3.6090 hc        1 MOL      0.069528
    115 H51         0.9810    0.0230    3.5090 hc        1 MOL      0.041088
    116 H52         0.2760   -0.0460    1.9020 hc        1 MOL      0.041088
    117 H53        -0.2900   -1.0890    3.1490 hc        1 MOL      0.041088
    118 H54         3.0560   -2.3870    5.2530 hc        1 MOL      0.106262
    119 H55         2.9300   -0.8000    4.4230 hc        1 MOL      0.106262
    120 H56         1.4630   -1.5020    5.1430 hc        1 MOL      0.106262
    121 N11         3.1620   -3.1260   -0.0780 n         1 MOL     -0.001558
    122 C40         4.2660   -3.9330   -0.6930 c3        1 MOL     -0.023079
    123 C41         5.6100   -3.5000   -0.0890 c         1 MOL      0.464159
    124 O16         5.7170   -2.5790    0.7250 o         1 MOL     -0.421284
    125 C42         4.2110   -3.7530   -2.2310 c3        1 MOL     -0.258798
    126 O17         4.5610   -2.4110   -2.5310 oh        1 MOL     -0.350008
    127 H57         3.1880   -2.1300   -0.2280 hn        1 MOL     -0.023324
    128 H58         4.1460   -4.9890   -0.4250 h1        1 MOL      0.095200
    129 H59         3.2320   -4.0510   -2.6240 h1        1 MOL      0.131657
    130 H60         4.9660   -4.3790   -2.7160 h1        1 MOL      0.131657
    131 H61         4.6360   -2.2140   -3.4690 ho        1 MOL      0.353946
    132 N12         6.7100   -4.1130   -0.4370 n         1 MOL     -0.403569
    133 C43         8.0320   -3.6290   -0.0710 c3        1 MOL      0.043539
    134 C44         8.3850   -2.3340   -0.8490 c         1 MOL      0.583638
    135 O18         9.0680   -1.5540   -0.2190 o         1 MOL     -0.531744
    136 C45         8.9200   -4.8620   -0.3510 c3        1 MOL     -0.309754
    137 H62         6.6800   -4.9270   -1.0400 hn        1 MOL      0.279001
    138 H63         8.0240   -3.3770    0.9870 h1        1 MOL      0.135093
    139 H64         8.5840   -5.8360   -0.0180 hc        1 MOL      0.093907
    140 H65         9.0740   -4.9890   -1.4230 hc        1 MOL      0.093907
    141 H66         9.9110   -4.6080    0.0490 hc        1 MOL      0.093907
    142 N13         7.8730   -2.0420   -2.0400 n         1 MOL     -0.495957
    143 C46         7.9870   -0.7160   -2.6920 c3        1 MOL      0.255093
    144 C47         7.2440    0.4100   -1.9640 c         1 MOL      0.356053
    145 O19         7.6410    1.5700   -2.0400 o         1 MOL     -0.515634
    146 C48         7.6170   -0.8050   -4.1930 c3        1 MOL     -0.484011
    147 H67         7.3750   -2.7440   -2.5680 hn        1 MOL      0.280820
    148 H68         9.0370   -0.4320   -2.6120 h1        1 MOL      0.061822
    149 H69         6.5620   -0.9810   -4.4110 hc        1 MOL      0.134921
    150 H70         7.7270    0.2330   -4.5080 hc        1 MOL      0.134921
    151 H71         8.2690   -1.5330   -4.6710 hc        1 MOL      0.134921
    152 N14         6.2310    0.0230   -1.1310 n         1 MOL      0.085205
    153 C49         5.4500    0.8700   -0.2790 c3        1 MOL     -0.119338
    154 C50         6.1430    1.0890    1.0770 c         1 MOL      0.467108
    155 O20         6.0480    2.1770    1.6470 o         1 MOL     -0.546425
    156 C51         4.0130    0.3420   -0.0830 c3        1 MOL      0.088354
    157 C52         3.2190    0.7300   -1.3490 c3        1 MOL     -0.027002
    158 C53         1.7740    0.3270   -1.2040 c         1 MOL      0.701775
    159 O21         1.3280   -0.6530   -1.8500 o         1 MOL     -0.736530
    160 O22         1.0340    1.0930   -0.5560 o         1 MOL     -0.736530
    161 H72         5.9780   -0.9530   -1.0870 hn        1 MOL     -0.162367
    162 H73         5.4510    1.8630   -0.7170 h1        1 MOL      0.092234
    163 H74         3.7040    0.7880    0.8610 hc        1 MOL      0.049922
    164 H75         4.0630   -0.7400   -0.1170 hc        1 MOL      0.049922
    165 H76         3.7020    0.3300   -2.2380 hc        1 MOL     -0.013215
    166 H77         3.3070    1.8220   -1.4220 hc        1 MOL     -0.013215
    167 N15         6.8480    0.0510    1.6090 n         1 MOL     -0.153107
    168 C54         7.6020    0.2100    2.8700 c3        1 MOL     -0.369480
    169 H78         7.8410   -0.7720    3.2760 h1        1 MOL      0.138364
    170 H79         8.5250    0.7570    2.6760 h1        1 MOL      0.138364
    171 H80         6.9960    0.7620    3.5890 h1        1 MOL      0.138364
    172 H81         6.8500   -0.7980    1.0590 hn        1 MOL      0.154417
    173 Ca1        -1.2230   -0.0910   -1.6410 Ca        1 MOL      1.776295
    174 O23        -1.0390   -2.6440   -2.2530 oh        1 MOL     -0.844106
    175 H82        -0.3070   -3.2500   -2.2710 ho        1 MOL      0.403734
    176 H83        -1.7720   -3.1390   -2.6150 ho        1 MOL      0.403734
    177 O24        -0.5290   -0.1110   -4.1600 oh        1 MOL     -0.844106
    178 H84        -0.0770   -0.9380   -4.3190 ho        1 MOL      0.403734
    179 H85        -0.7560    0.2070   -5.0360 ho        1 MOL      0.403734
@<TRIPOS>BOND
     1    1    2 1   
     2    1    4 1   
     3    1    5 1   
     4    1    6 1   
     5    2    3 2   
     6    2    7 1   
     7    7    8 1   
     8    7   15 1   
     9    8    9 1   
    10    8   11 1   
    11    8   16 1   
    12    9   10 2   
    13    9   19 1   
    14   11   12 1   
    15   11   17 1   
    16   11   18 1   
    17   12   13 1   
    18   12   14 1   
    19   19   20 1   
    20   19   28 1   
    21   20   21 1   
    22   20   23 1   
    23   20   29 1   
    24   21   22 2   
    25   21   41 1   
    26   23   24 1   
    27   23   30 1   
    28   23   31 1   
    29   24   25 1   
    30   24   32 1   
    31   24   33 1   
    32   25   26 1   
    33   25   34 1   
    34   25   35 1   
    35   26   27 1   
    36   26   36 1   
    37   26   37 1   
    38   27   38 1   
    39   27   39 1   
    40   27   40 1   
    41   41   42 1   
    42   41   49 1   
    43   42   43 1   
    44   42   45 1   
    45   42   50 1   
    46   43   44 2   
    47   43   53 1   
    48   45   46 1   
    49   45   51 1   
    50   45   52 1   
    51   46   47 1   
    52   46   48 1   
    53   53   54 1   
    54   53   57 1   
    55   54   55 1   
    56   54   58 1   
    57   54   59 1   
    58   55   56 2   
    59   55   60 1   
    60   60   61 1   
    61   60   68 1   
    62   61   62 1   
    63   61   64 1   
    64   61   69 1   
    65   62   63 2   
    66   62   74 1   
    67   64   65 1   
    68   64   70 1   
    69   64   71 1   
    70   65   66 1   
    71   65   67 2   
    72   66   72 1   
    73   66   73 1   
    74   74   75 1   
    75   74   78 1   
    76   75   76 1   
    77   75   79 1   
    78   75   80 1   
    79   76   77 2   
    80   76   81 1   
    81   81   82 1   
    82   81   93 1   
    83   82   83 1   
    84   82   85 1   
    85   82   94 1   
    86   83   84 2   
    87   83  102 1   
    88   85   86 1   
    89   85   95 1   
    90   85   96 1   
    91   86   87 ar  
    92   86   88 ar  
    93   87   89 ar  
    94   87   97 1   
    95   88   90 ar  
    96   88   98 1   
    97   89   91 ar  
    98   89   99 1   
    99   90   91 ar  
   100   90  100 1   
   101   91   92 1   
   102   92  101 1   
   103  102  103 1   
   104  102  110 1   
   105  103  104 1   
   106  103  106 1   
   107  103  111 1   
   108  104  105 2   
   109  104  121 1   
   110  106  107 1   
   111  106  108 1   
   112  106  112 1   
   113  107  109 1   
   114  107  113 1   
   115  107  114 1   
   116  108  115 1   
   117  108  116 1   
   118  108  117 1   
   119  109  118 1   
   120  109  119 1   
   121  109  120 1   
   122  121  122 1   
   123  121  127 1   
   124  122  123 1   
   125  122  125 1   
   126  122  128 1   
   127  123  124 2   
   128  123  132 1   
   129  125  126 1   
   130  125  129 1   
   131  125  130 1   
   132  126  131 1   
   133  132  133 1   
   134  132  137 1   
   135  133  134 1   
   136  133  136 1   
   137  133  138 1   
   138  134  135 2   
   139  134  142 1   
   140  136  139 1   
   141  136  140 1   
   142  136  141 1   
   143  142  143 1   
   144  142  147 1   
   145  143  144 1   
   146  143  146 1   
   147  143  148 1   
   148  144  145 2   
   149  144  152 1   
   150  146  149 1   
   151  146  150 1   
   152  146  151 1   
   153  152  153 1   
   154  152  161 1   
   155  153  154 1   
   156  153  156 1   
   157  153  162 1   
   158  154  155 2   
   159  154  167 1   
   160  156  157 1   
   161  156  163 1   
   162  156  164 1   
   163  157  158 1   
   164  157  165 1   
   165  157  166 1   
   166  158  159 1   
   167  158  160 1   
   168  167  168 1   
   169  167  172 1   
   170  168  169 1   
   171  168  170 1   
   172  168  171 1   
   173  174  175 1   
   174  174  176 1   
   175  177  178 1   
   176  177  179 1   
@<TRIPOS>SUBSTRUCTURE
     1 MOL         1 TEMP              0 ****  ****    0 ROOT
