@<TRIPOS>MOLECULE
MOL
  175   173     1     0     0
SMALL
resp


@<TRIPOS>ATOM
      1 C1          0.0570   -0.4360    6.3590 c3        1 MOL     -0.332674
      2 C2          0.2780   -0.9910    4.9720 c         1 MOL      0.716361
      3 O1         -0.2980   -1.9530    4.4830 o         1 MOL     -0.557293
      4 H1          0.7720   -0.8860    7.0480 hc        1 MOL      0.084007
      5 H2          0.1970    0.6440    6.3460 hc        1 MOL      0.084007
      6 H3         -0.9570   -0.6680    6.6860 hc        1 MOL      0.084007
      7 N1          1.3860   -0.5520    4.3380 n         1 MOL     -0.586833
      8 C3          1.9310   -0.9010    3.0010 c3        1 MOL      0.031949
      9 C4          2.3360   -2.3980    2.9270 c         1 MOL      0.647202
     10 O2          2.9690   -2.9390    3.8440 o         1 MOL     -0.610533
     11 C5          3.1330    0.0170    2.7430 c3        1 MOL      0.028883
     12 C6          3.9720   -0.4410    1.5530 c         1 MOL      0.458629
     13 O3          3.4130   -0.5000    0.4630 o         1 MOL     -0.594496
     14 O4          5.1280   -0.8160    1.7410 o         1 MOL     -0.594496
     15 H4          1.9500    0.1170    4.8430 hn        1 MOL      0.297089
     16 H5          1.2300   -0.7630    2.1690 h1        1 MOL      0.029759
     17 H6          3.7370    0.1730    3.6410 hc        1 MOL     -0.018204
     18 H7          2.7450    1.0040    2.4690 hc        1 MOL     -0.018204
     19 N2          1.9340   -3.0590    1.8850 n         1 MOL     -0.322544
     20 C7          2.1650   -4.5300    1.7990 c3        1 MOL      0.260668
     21 C8          2.9380   -5.0640    0.5020 c         1 MOL      0.339750
     22 O5          3.3230   -6.2460    0.5000 o         1 MOL     -0.559172
     23 C9          0.7760   -5.1520    1.8790 c3        1 MOL     -0.259196
     24 H8          1.3560   -2.6430    1.1790 hn        1 MOL      0.208736
     25 H9          2.7790   -4.9110    2.6250 h1        1 MOL      0.022998
     26 H10         0.3300   -4.8620    2.8330 hc        1 MOL      0.062960
     27 H11         0.1330   -4.7850    1.0820 hc        1 MOL      0.062960
     28 H12         0.8910   -6.2290    1.8860 hc        1 MOL      0.062960
     29 N3          3.2650   -4.2170   -0.5160 n         1 MOL     -0.191423
     30 C10         4.2030   -4.5210   -1.6490 c3        1 MOL      0.205993
     31 C11         5.5440   -3.8680   -1.3910 c         1 MOL      0.439213
     32 O6          6.3890   -3.8930   -2.2560 o         1 MOL     -0.539603
     33 C12         3.6860   -4.1890   -3.0510 c3        1 MOL     -0.287461
     34 C13         3.1000   -2.7930   -3.3190 c         1 MOL      0.899193
     35 O7          2.8450   -2.4370   -4.4920 o         1 MOL     -0.758461
     36 O8          2.8690   -1.9990   -2.4200 o         1 MOL     -0.758461
     37 H13         2.8780   -3.2870   -0.5210 hn        1 MOL      0.114152
     38 H14         4.4020   -5.5890   -1.5180 h1        1 MOL      0.047303
     39 H15         2.9070   -4.9440   -3.1750 hc        1 MOL      0.040372
     40 H16         4.5100   -4.3200   -3.7550 hc        1 MOL      0.040372
     41 N4          5.8560   -3.4020   -0.1610 n         1 MOL     -0.324143
     42 C14         7.1670   -2.9350    0.2820 c3        1 MOL     -0.180639
     43 C15         7.5440   -1.5010   -0.1060 c         1 MOL      0.587464
     44 O9          8.6440   -1.0760    0.2200 o         1 MOL     -0.600415
     45 H17         5.0650   -3.3020    0.4740 hn        1 MOL      0.216919
     46 H18         7.8770   -3.6360   -0.1500 h1        1 MOL      0.114388
     47 H19         7.2300   -3.0730    1.3590 h1        1 MOL      0.114388
     48 N5          6.6340   -0.7640   -0.7720 n         1 MOL     -0.319642
     49 C16         6.9060    0.6190   -1.4460 c3        1 MOL      0.100402
     50 C17         6.7720    1.8040   -0.5370 c         1 MOL      0.346899
     51 O10         7.1630    2.8750   -0.8250 o         1 MOL     -0.527955
     52 C18         6.0770    0.6710   -2.7330 c3        1 MOL     -0.513851
     53 C19         4.9010    1.6610   -2.6860 c         1 MOL      0.720528
     54 N6          4.7380    2.5660   -3.6160 n         1 MOL     -0.668802
     55 O11         3.9440    1.5920   -1.9440 o         1 MOL     -0.553820
     56 H20         5.6630   -1.0440   -0.7940 hn        1 MOL      0.174594
     57 H21         7.9520    0.5810   -1.7360 h1        1 MOL      0.116639
     58 H22         5.6340   -0.2940   -2.9950 hc        1 MOL      0.176804
     59 H23         6.8340    1.1010   -3.3920 hc        1 MOL      0.176804
     60 H24         5.4330    2.6800   -4.3480 hn        1 MOL      0.326416
     61 H25         3.8730    3.0960   -3.6510 hn        1 MOL      0.326416
     62 N7          6.2770    1.6690    0.6620 n         1 MOL     -0.045745
     63 C20         6.1100    2.7760    1.6220 c3        1 MOL     -0.330679
     64 C21         5.0360    3.8670    1.5770 c         1 MOL      0.591538
     65 O12         4.9830    4.8340    2.3270 o         1 MOL     -0.574515
     66 H26         6.0470    0.7350    0.9310 hn        1 MOL      0.177348
     67 H27         6.9950    3.4070    1.6030 h1        1 MOL      0.129082
     68 H28         6.1460    2.2430    2.5740 h1        1 MOL      0.129082
     69 N8          4.0080    3.5830    0.7090 n         1 MOL     -0.300325
     70 C22         2.7650    4.3810    0.5010 c3        1 MOL     -0.000863
     71 C23         1.4990    3.4370    0.5520 c         1 MOL      0.360922
     72 O13         1.6160    2.1990    0.4070 o         1 MOL     -0.356149
     73 C24         2.8650    5.1450   -0.8910 c3        1 MOL      0.559106
     74 C25         3.1660    6.6770   -0.7700 c3        1 MOL     -0.351122
     75 O14         3.8490    4.5100   -1.7230 oh        1 MOL     -0.666720
     76 H29         4.0860    2.7520    0.1430 hn        1 MOL      0.185824
     77 H30         2.6940    5.0610    1.3510 h1        1 MOL      0.055994
     78 H31         1.8790    5.1560   -1.3700 h1        1 MOL     -0.066103
     79 H32         3.7900    3.5590   -1.8320 ho        1 MOL      0.350480
     80 H33         2.4350    6.9850   -0.0300 hc        1 MOL      0.075648
     81 H34         4.1590    6.8420   -0.3760 hc        1 MOL      0.075648
     82 H35         3.0780    7.1770   -1.7370 hc        1 MOL      0.075648
     83 N9          0.3700    4.0840    0.7430 n         1 MOL     -0.404071
     84 C26        -0.8940    3.3490    1.0100 c3        1 MOL      0.056230
     85 C27        -1.8260    3.1670   -0.2280 c         1 MOL      0.437001
     86 O15        -2.3370    4.2150   -0.6630 o         1 MOL     -0.573741
     87 C28        -1.6400    3.8690    2.2840 c3        1 MOL     -0.049741
     88 C29        -0.7870    3.4830    3.5130 c3        1 MOL     -0.012458
     89 C30        -3.0240    3.2400    2.4760 c3        1 MOL     -0.062589
     90 C31        -1.2800    4.3030    4.6890 c3        1 MOL     -0.096262
     91 H36         0.3100    5.0980    0.8090 hn        1 MOL      0.289403
     92 H37        -0.5510    2.3420    1.2550 h1        1 MOL      0.024673
     93 H38        -1.7530    4.9540    2.1880 hc        1 MOL      0.035990
     94 H39         0.2980    3.5320    3.3970 hc        1 MOL      0.023212
     95 H40        -1.0330    2.4620    3.7550 hc        1 MOL      0.023212
     96 H41        -3.5970    3.7590    3.2520 hc        1 MOL      0.034772
     97 H42        -3.6540    3.3930    1.5980 hc        1 MOL      0.034772
     98 H43        -2.8670    2.1710    2.6460 hc        1 MOL      0.034772
     99 H44        -1.1700    5.3640    4.4500 hc        1 MOL      0.013498
    100 H45        -2.3200    4.0110    4.8660 hc        1 MOL      0.013498
    101 H46        -0.7910    4.1180    5.6450 hc        1 MOL      0.013498
    102 N10        -2.0060    1.9470   -0.7500 n         1 MOL     -0.050814
    103 C32        -3.0660    1.6520   -1.7140 c3        1 MOL      0.008372
    104 C33        -4.4340    1.3630   -1.0800 c         1 MOL      0.447248
    105 O16        -4.5790    1.0520    0.1280 o         1 MOL     -0.459405
    106 C34        -2.6110    0.5450   -2.6240 c3        1 MOL     -0.199790
    107 C35        -1.2590    0.6740   -3.2820 c         1 MOL      0.729325
    108 O17        -0.9600    1.5760   -4.0900 o         1 MOL     -0.715357
    109 O18        -0.3340   -0.0960   -2.9280 o         1 MOL     -0.715357
    110 H47        -1.4390    1.1670   -0.4430 hn        1 MOL      0.068467
    111 H48        -3.1750    2.5020   -2.3910 h1        1 MOL      0.044742
    112 H49        -3.2920    0.3910   -3.4670 hc        1 MOL      0.060784
    113 H50        -2.5820   -0.4010   -2.0880 hc        1 MOL      0.060784
    114 N11        -5.4720    1.2540   -1.9030 n         1 MOL     -0.509426
    115 C36        -6.7830    0.8360   -1.4440 c3        1 MOL      0.290730
    116 C37        -6.9470   -0.5480   -0.6540 c         1 MOL      0.409238
    117 O19        -7.4070   -0.5380    0.4860 o         1 MOL     -0.503769
    118 C38        -7.8100    1.0520   -2.6250 c3        1 MOL     -0.154976
    119 C39        -9.2320    0.9490   -2.1430 ca        1 MOL      0.081521
    120 C40        -9.7500    1.7320   -1.0770 ca        1 MOL     -0.199627
    121 C41        -9.8840   -0.1890   -2.6230 ca        1 MOL     -0.199627
    122 C42       -11.0470    1.4050   -0.6020 ca        1 MOL     -0.057465
    123 C43       -11.1820   -0.4300   -2.1890 ca        1 MOL     -0.057465
    124 C44       -11.8030    0.3690   -1.2200 ca        1 MOL     -0.153012
    125 H51        -5.3750    1.4680   -2.8830 hn        1 MOL      0.302395
    126 H52        -7.1810    1.6510   -0.8390 h1        1 MOL      0.052699
    127 H53        -7.5630    0.3220   -3.3840 hc        1 MOL      0.045403
    128 H54        -7.6620    2.0720   -2.9740 hc        1 MOL      0.045403
    129 H55        -9.2550    2.5810   -0.6220 ha        1 MOL      0.136808
    130 H56        -9.5120   -0.8450   -3.3980 ha        1 MOL      0.136808
    131 H57       -11.5180    1.9210    0.2310 ha        1 MOL      0.095398
    132 H58       -11.7020   -1.2720   -2.6260 ha        1 MOL      0.095398
    133 H59       -12.8060    0.0410   -0.9860 ha        1 MOL      0.104022
    134 N12        -6.3640   -1.7120   -1.1340 n         1 MOL     -0.204664
    135 C45        -6.2910   -2.9710   -0.3670 c3        1 MOL      0.144355
    136 C46        -5.4500   -2.8790    0.9100 c         1 MOL      0.277267
    137 O20        -5.6220   -3.6650    1.8310 o         1 MOL     -0.511101
    138 C47        -5.8730   -4.0100   -1.3270 c3        1 MOL     -0.295635
    139 C48        -5.0890   -3.2630   -2.3850 c3        1 MOL      0.147029
    140 C49        -5.6530   -1.8520   -2.3910 c3        1 MOL     -0.078715
    141 H60        -7.2730   -3.1800    0.0380 h1        1 MOL      0.061375
    142 H61        -5.1330   -4.6300   -0.8180 hc        1 MOL      0.090547
    143 H62        -6.8290   -4.4320   -1.6430 hc        1 MOL      0.090547
    144 H63        -4.0420   -3.1580   -2.1010 hc        1 MOL      0.005138
    145 H64        -5.0430   -3.8370   -3.3210 hc        1 MOL      0.005138
    146 H65        -4.8330   -1.1500   -2.5350 h1        1 MOL      0.019193
    147 H66        -6.2550   -1.6810   -3.2840 h1        1 MOL      0.019193
    148 N13        -4.5010   -1.9370    0.9740 n         1 MOL      0.066651
    149 C50        -3.5940   -1.6930    2.1580 c3        1 MOL     -0.372872
    150 C51        -4.3160   -0.8880    3.2230 c         1 MOL      0.605167
    151 O21        -4.2430   -1.2280    4.4140 o         1 MOL     -0.575466
    152 C52        -2.2930   -1.0670    1.5780 c3        1 MOL      0.126129
    153 C53        -1.4990   -2.0350    0.7930 c3        1 MOL     -0.191523
    154 C54        -0.3240   -1.3800    0.0800 c         1 MOL      0.619221
    155 O22        -0.2010   -0.1430    0.0360 o         1 MOL     -0.673927
    156 O23         0.5240   -2.0290   -0.4650 o         1 MOL     -0.673927
    157 H67        -4.3990   -1.3640    0.1450 hn        1 MOL      0.192567
    158 H68        -3.1940   -2.5810    2.6520 h1        1 MOL      0.156973
    159 H69        -1.6700   -0.6660    2.3850 hc        1 MOL      0.012132
    160 H70        -2.5780   -0.2290    0.9480 hc        1 MOL      0.012132
    161 H71        -2.2320   -2.4780    0.1130 hc        1 MOL      0.053638
    162 H72        -1.1840   -2.7790    1.5210 hc        1 MOL      0.053638
    163 N14        -5.0120    0.1450    2.8360 n         1 MOL     -0.130418
    164 C55        -5.9830    0.8060    3.6920 c3        1 MOL     -0.310021
    165 H73        -5.5600    0.9350    4.6890 h1        1 MOL      0.106121
    166 H74        -6.2320    1.7820    3.2750 h1        1 MOL      0.106121
    167 H75        -6.8850    0.1970    3.7570 h1        1 MOL      0.106121
    168 H76        -4.8280    0.5870    1.9450 hn        1 MOL      0.117791
    169 Ca1         1.8200    0.1040   -1.4530 Ca        1 MOL      1.741503
    170 O24         2.2460    0.1050   -4.1210 oh        1 MOL     -0.932199
    171 H77         1.3890    0.2360   -4.5310 ho        1 MOL      0.426972
    172 H78         2.4900   -0.7860   -4.3680 ho        1 MOL      0.426972
    173 O25         1.2860    2.5960   -2.8070 oh        1 MOL     -0.932199
    174 H79         0.4510    2.3040   -3.1540 ho        1 MOL      0.426972
    175 H80         1.6380    3.1770   -3.4840 ho        1 MOL      0.426972
@<TRIPOS>BOND
     1    1    2 1   
     2    1    4 1   
     3    1    5 1   
     4    1    6 1   
     5    2    3 2   
     6    2    7 1   
     7    7    8 1   
     8    7   15 1   
     9    8    9 1   
    10    8   11 1   
    11    8   16 1   
    12    9   10 2   
    13    9   19 1   
    14   11   12 1   
    15   11   17 1   
    16   11   18 1   
    17   12   13 1   
    18   12   14 1   
    19   19   20 1   
    20   19   24 1   
    21   20   21 1   
    22   20   23 1   
    23   20   25 1   
    24   21   22 2   
    25   21   29 1   
    26   23   26 1   
    27   23   27 1   
    28   23   28 1   
    29   29   30 1   
    30   29   37 1   
    31   30   31 1   
    32   30   33 1   
    33   30   38 1   
    34   31   32 2   
    35   31   41 1   
    36   33   34 1   
    37   33   39 1   
    38   33   40 1   
    39   34   35 1   
    40   34   36 1   
    41   41   42 1   
    42   41   45 1   
    43   42   43 1   
    44   42   46 1   
    45   42   47 1   
    46   43   44 2   
    47   43   48 1   
    48   48   49 1   
    49   48   56 1   
    50   49   50 1   
    51   49   52 1   
    52   49   57 1   
    53   50   51 2   
    54   50   62 1   
    55   52   53 1   
    56   52   58 1   
    57   52   59 1   
    58   53   54 1   
    59   53   55 2   
    60   54   60 1   
    61   54   61 1   
    62   62   63 1   
    63   62   66 1   
    64   63   64 1   
    65   63   67 1   
    66   63   68 1   
    67   64   65 2   
    68   64   69 1   
    69   69   70 1   
    70   69   76 1   
    71   70   71 1   
    72   70   73 1   
    73   70   77 1   
    74   71   72 2   
    75   71   83 1   
    76   73   74 1   
    77   73   75 1   
    78   73   78 1   
    79   74   80 1   
    80   74   81 1   
    81   74   82 1   
    82   75   79 1   
    83   83   84 1   
    84   83   91 1   
    85   84   85 1   
    86   84   87 1   
    87   84   92 1   
    88   85   86 2   
    89   85  102 1   
    90   87   88 1   
    91   87   89 1   
    92   87   93 1   
    93   88   90 1   
    94   88   94 1   
    95   88   95 1   
    96   89   96 1   
    97   89   97 1   
    98   89   98 1   
    99   90   99 1   
   100   90  100 1   
   101   90  101 1   
   102  102  103 1   
   103  102  110 1   
   104  103  104 1   
   105  103  106 1   
   106  103  111 1   
   107  104  105 2   
   108  104  114 1   
   109  106  107 1   
   110  106  112 1   
   111  106  113 1   
   112  107  108 1   
   113  107  109 1   
   114  114  115 1   
   115  114  125 1   
   116  115  116 1   
   117  115  118 1   
   118  115  126 1   
   119  116  117 2   
   120  116  134 1   
   121  118  119 1   
   122  118  127 1   
   123  118  128 1   
   124  119  120 ar  
   125  119  121 ar  
   126  120  122 ar  
   127  120  129 1   
   128  121  123 ar  
   129  121  130 1   
   130  122  124 ar  
   131  122  131 1   
   132  123  124 ar  
   133  123  132 1   
   134  124  133 1   
   135  134  135 1   
   136  134  140 1   
   137  135  136 1   
   138  135  138 1   
   139  135  141 1   
   140  136  137 2   
   141  136  148 1   
   142  138  139 1   
   143  138  142 1   
   144  138  143 1   
   145  139  140 1   
   146  139  144 1   
   147  139  145 1   
   148  140  146 1   
   149  140  147 1   
   150  148  149 1   
   151  148  157 1   
   152  149  150 1   
   153  149  152 1   
   154  149  158 1   
   155  150  151 2   
   156  150  163 1   
   157  152  153 1   
   158  152  159 1   
   159  152  160 1   
   160  153  154 1   
   161  153  161 1   
   162  153  162 1   
   163  154  155 1   
   164  154  156 1   
   165  163  164 1   
   166  163  168 1   
   167  164  165 1   
   168  164  166 1   
   169  164  167 1   
   170  170  171 1   
   171  170  172 1   
   172  173  174 1   
   173  173  175 1   
@<TRIPOS>SUBSTRUCTURE
     1 MOL         1 TEMP              0 ****  ****    0 ROOT
