@<TRIPOS>MOLECULE
MOL
  186   183     1     0     0
SMALL
resp


@<TRIPOS>ATOM
      1 C1          0.3390   -1.8630    6.4260 c3        1 MOL     -0.372459
      2 C2          0.6970   -1.8430    4.8990 c         1 MOL      0.659805
      3 O1         -0.1200   -2.3670    4.1770 o         1 MOL     -0.526146
      4 H1          1.2000   -1.5290    7.0040 hc        1 MOL      0.090699
      5 H2         -0.5040   -1.1960    6.6100 hc        1 MOL      0.090699
      6 H3          0.0720   -2.8770    6.7240 hc        1 MOL      0.090699
      7 N1          1.8460   -1.3110    4.4170 n         1 MOL     -0.520151
      8 C3          2.3750   -1.4570    3.0210 c3        1 MOL      0.188144
      9 C4          2.8460   -2.8930    2.6720 c         1 MOL      0.452021
     10 O2          3.6860   -3.4700    3.3770 o         1 MOL     -0.576622
     11 C5          3.4070   -0.3100    2.8340 c3        1 MOL     -0.460776
     12 C6          4.1610   -0.2530    1.5150 c         1 MOL      0.950448
     13 O3          5.1890    0.5050    1.4640 o         1 MOL     -0.721645
     14 O4          3.7800   -0.8700    0.5220 o         1 MOL     -0.721645
     15 H4          2.4910   -0.9990    5.1180 hn        1 MOL      0.291824
     16 H5          1.4970   -1.2500    2.4000 h1        1 MOL      0.006215
     17 H6          4.1720   -0.5150    3.5780 hc        1 MOL      0.106252
     18 H7          2.9360    0.6340    3.0790 hc        1 MOL      0.106252
     19 N2          2.4140   -3.5180    1.5640 n         1 MOL     -0.087907
     20 C7          2.6490   -4.9030    1.1370 c3        1 MOL     -0.248614
     21 C8          3.8750   -5.0760    0.2150 c         1 MOL      0.568026
     22 O5          4.7660   -5.8980    0.5870 o         1 MOL     -0.557605
     23 C9          1.3220   -5.5680    0.6820 c3        1 MOL      0.182060
     24 C10         0.2260   -5.3180    1.7180 c3        1 MOL      0.122408
     25 C11         1.6680   -7.0700    0.4970 c3        1 MOL     -0.312145
     26 C12        -1.1310   -5.6260    1.1100 c3        1 MOL     -0.097578
     27 H8          1.8450   -2.9650    0.9350 hn        1 MOL      0.169389
     28 H9          2.8760   -5.4590    2.0430 h1        1 MOL      0.098555
     29 H10         1.0090   -5.1390   -0.2640 hc        1 MOL      0.024469
     30 H11         0.2260   -4.3420    2.2130 hc        1 MOL     -0.035476
     31 H12         0.3940   -6.0670    2.4910 hc        1 MOL     -0.035476
     32 H13         2.1860   -7.2130   -0.4540 hc        1 MOL      0.063995
     33 H14         2.3600   -7.4100    1.2690 hc        1 MOL      0.063995
     34 H15         0.7740   -7.6740    0.5860 hc        1 MOL      0.063995
     35 H16        -1.9230   -5.3750    1.8180 hc        1 MOL      0.012905
     36 H17        -1.2640   -5.1610    0.1310 hc        1 MOL      0.012905
     37 H18        -1.1930   -6.7010    0.9220 hc        1 MOL      0.012905
     38 N3          4.0330   -4.1490   -0.8010 n         1 MOL     -0.307101
     39 C13         5.1380   -4.1700   -1.6640 c3        1 MOL     -0.012434
     40 C14         6.2960   -3.3820   -1.0580 c         1 MOL      0.386574
     41 O6          7.4160   -3.5050   -1.5300 o         1 MOL     -0.546045
     42 C15         4.7910   -3.7540   -3.1040 c3        1 MOL     -0.105350
     43 C16         3.7020   -2.7750   -3.4930 c         1 MOL      0.664047
     44 O7          3.4240   -1.8000   -2.7130 o         1 MOL     -0.670236
     45 O8          3.2830   -2.8540   -4.6620 o         1 MOL     -0.670236
     46 H19         3.5480   -3.2630   -0.7050 hn        1 MOL      0.169235
     47 H20         5.5400   -5.1760   -1.7480 h1        1 MOL      0.084269
     48 H21         4.4340   -4.6320   -3.6270 hc        1 MOL      0.025290
     49 H22         5.7000   -3.5060   -3.6500 hc        1 MOL      0.025290
     50 N4          6.0970   -2.5120   -0.0740 n         1 MOL     -0.047705
     51 C17         7.1450   -1.8060    0.6910 c3        1 MOL     -0.110543
     52 C18         7.6560   -0.5360   -0.0940 c         1 MOL      0.588767
     53 O9          8.8270   -0.3520   -0.3290 o         1 MOL     -0.616867
     54 H23         5.1500   -2.1530   -0.0160 hn        1 MOL      0.068439
     55 H24         7.9800   -2.4860    0.8310 h1        1 MOL      0.061823
     56 H25         6.8010   -1.4940    1.6710 h1        1 MOL      0.061823
     57 N5          6.7840    0.3440   -0.6440 n         1 MOL     -0.190607
     58 C19         7.0670    1.5620   -1.4960 c3        1 MOL     -0.027904
     59 C20         6.9840    2.9000   -0.7830 c         1 MOL      0.363427
     60 O10         7.0790    3.9690   -1.4320 o         1 MOL     -0.543963
     61 C21         6.2340    1.4980   -2.7640 c3        1 MOL     -0.301362
     62 C22         4.7380    1.5840   -2.5230 c         1 MOL      0.716212
     63 O11         4.2110    1.9100   -1.4120 o         1 MOL     -0.724562
     64 O12         3.9360    1.1380   -3.3560 o         1 MOL     -0.724562
     65 H26         5.8480    0.2760   -0.2840 hn        1 MOL      0.041933
     66 H27         8.0580    1.5430   -1.9640 h1        1 MOL      0.118093
     67 H28         6.5330    0.5250   -3.1640 hc        1 MOL      0.118334
     68 H29         6.5160    2.2340   -3.5170 hc        1 MOL      0.118334
     69 N6          6.7150    2.8970    0.5250 n         1 MOL     -0.252458
     70 C23         6.6960    4.0840    1.3770 c3        1 MOL     -0.136417
     71 C24         5.3170    4.5790    1.5900 c         1 MOL      0.545610
     72 O13         5.1190    5.4760    2.4210 o         1 MOL     -0.607645
     73 H30         6.3550    2.0140    0.8440 hn        1 MOL      0.234287
     74 H31         7.1810    4.9170    0.8570 h1        1 MOL      0.098650
     75 H32         7.1870    3.8290    2.3060 h1        1 MOL      0.098650
     76 N7          4.2500    3.9840    0.9630 n         1 MOL     -0.242353
     77 C25         2.8850    4.3960    0.9930 c3        1 MOL     -0.147296
     78 C26         1.9100    3.2090    1.2380 c         1 MOL      0.589523
     79 O14         2.1690    2.1430    0.6840 o         1 MOL     -0.647243
     80 C27         2.5430    5.2070   -0.1710 c3        1 MOL      0.217120
     81 C28         3.1790    6.6720   -0.2060 c3        1 MOL     -0.261385
     82 C29         2.4300    7.4970   -1.1850 c         1 MOL      0.672339
     83 N8          2.6470    7.2640   -2.4550 n         1 MOL     -0.839933
     84 O15         1.6050    8.3500   -0.8110 o         1 MOL     -0.594473
     85 H33         4.4690    3.1700    0.4110 hn        1 MOL      0.254161
     86 H34         2.6490    4.9950    1.8770 h1        1 MOL      0.092298
     87 H35         1.4690    5.3540   -0.2340 hc        1 MOL     -0.027862
     88 H36         2.8100    4.7830   -1.1430 hc        1 MOL     -0.027862
     89 H37         4.1860    6.5900   -0.6250 hc        1 MOL      0.070097
     90 H38         3.1850    7.1480    0.7650 hc        1 MOL      0.070097
     91 H39         3.4410    6.6750   -2.6910 hn        1 MOL      0.380917
     92 H40         2.0200    7.6720   -3.1390 hn        1 MOL      0.380917
     93 N9          0.7560    3.4630    1.8610 n         1 MOL     -0.476106
     94 C30        -0.3250    2.5280    1.9800 c3        1 MOL      0.159206
     95 C31        -1.4750    2.9830    0.9920 c         1 MOL      0.339663
     96 O16        -2.1260    3.9670    1.2480 o         1 MOL     -0.556012
     97 C32        -0.8720    2.4280    3.3640 c3        1 MOL      0.259773
     98 C33        -1.6130    1.1360    3.5030 c3        1 MOL     -0.255787
     99 C34         0.1970    2.4810    4.5500 c3        1 MOL     -0.255787
    100 H41         0.6850    4.2130    2.5330 hn        1 MOL      0.275450
    101 H42        -0.0710    1.5090    1.7010 h1        1 MOL      0.148759
    102 H43        -1.5380    3.2730    3.5710 hc        1 MOL     -0.043236
    103 H44        -2.5880    1.0450    3.0030 hc        1 MOL      0.042139
    104 H45        -1.0200    0.2650    3.2540 hc        1 MOL      0.042139
    105 H46        -1.9090    1.0470    4.5440 hc        1 MOL      0.042139
    106 H47         0.8380    1.6040    4.5640 hc        1 MOL      0.042139
    107 H48         0.7140    3.4340    4.4140 hc        1 MOL      0.042139
    108 H49        -0.3200    2.5310    5.5190 hc        1 MOL      0.042139
    109 N10        -1.7510    2.2260   -0.0660 n         1 MOL     -0.144284
    110 C35        -2.8720    2.3300   -1.0140 c3        1 MOL      0.009029
    111 C36        -4.0950    1.7900   -0.2960 c         1 MOL      0.463738
    112 O17        -3.9530    1.0730    0.6490 o         1 MOL     -0.328291
    113 C37        -2.5740    1.5220   -2.2570 c3        1 MOL     -0.334352
    114 C38        -3.5550    1.6490   -3.4060 c         1 MOL      0.737877
    115 N11        -3.3400    2.5160   -4.3760 n         1 MOL     -0.821174
    116 O18        -4.5770    0.9990   -3.3570 o         1 MOL     -0.589031
    117 H50        -1.1910    1.3850   -0.1620 hn        1 MOL      0.163250
    118 H51        -2.9990    3.3770   -1.3170 h1        1 MOL      0.072103
    119 H52        -2.5750    0.4440   -2.0870 hc        1 MOL      0.126142
    120 H53        -1.5610    1.6850   -2.6300 hc        1 MOL      0.126142
    121 H54        -2.4300    2.9520   -4.4260 hn        1 MOL      0.379929
    122 H55        -4.0730    2.6130   -5.0750 hn        1 MOL      0.379929
    123 N12        -5.2760    2.0320   -0.8540 n         1 MOL     -0.649329
    124 C39        -6.5690    1.6400   -0.3500 c3        1 MOL      0.437003
    125 C40        -6.7810    0.1710   -0.4500 c         1 MOL      0.576374
    126 O19        -7.3320   -0.4070    0.4850 o         1 MOL     -0.550811
    127 C41        -7.7110    2.4400   -0.9860 c3        1 MOL     -0.169316
    128 C42        -9.1700    2.2010   -0.3560 ca        1 MOL     -0.046039
    129 C43        -9.4490    2.4800    0.9830 ca        1 MOL     -0.084564
    130 C44       -10.1820    1.7430   -1.1650 ca        1 MOL     -0.084564
    131 C45       -10.7370    2.1870    1.5530 ca        1 MOL     -0.305905
    132 C46       -11.4390    1.4480   -0.6610 ca        1 MOL     -0.305905
    133 C47       -11.6880    1.5240    0.7010 ca        1 MOL      0.389534
    134 O20       -12.9010    1.1520    1.2470 oh        1 MOL     -0.506545
    135 H56        -5.3700    2.5570   -1.7190 hn        1 MOL      0.295277
    136 H57        -6.5220    1.8550    0.7210 h1        1 MOL      0.000744
    137 H58        -7.8400    2.1170   -2.0190 hc        1 MOL      0.051466
    138 H59        -7.4550    3.4950   -0.9820 hc        1 MOL      0.051466
    139 H60        -8.6310    2.8560    1.5730 ha        1 MOL      0.111497
    140 H61       -10.0010    1.7240   -2.2310 ha        1 MOL      0.111497
    141 H62       -10.9230    2.3630    2.6080 ha        1 MOL      0.151589
    142 H63       -12.2500    1.1860   -1.3320 ha        1 MOL      0.151589
    143 H64       -13.4960    0.7180    0.6300 ho        1 MOL      0.351704
    144 N13        -6.3140   -0.4100   -1.5810 n         1 MOL     -0.637678
    145 C48        -6.2060   -1.8890   -1.6890 c3        1 MOL      0.201708
    146 C49        -5.4440   -2.4780   -0.4860 c         1 MOL      0.184629
    147 O21        -5.6910   -3.6220   -0.0490 o         1 MOL     -0.481630
    148 C50        -5.4170   -2.2790   -2.9800 c3        1 MOL      0.040484
    149 C51        -5.2630   -3.8010   -3.1810 c3        1 MOL     -0.356324
    150 C52        -4.2450   -3.9770   -4.3340 c         1 MOL      0.723869
    151 O22        -3.0280   -4.2670   -4.1160 o         1 MOL     -0.733215
    152 O23        -4.6440   -3.7350   -5.4790 o         1 MOL     -0.733215
    153 H65        -5.8670    0.2330   -2.2130 hn        1 MOL      0.313769
    154 H66        -7.1810   -2.3640   -1.6960 h1        1 MOL      0.058328
    155 H67        -4.4680   -1.7540   -2.8850 hc        1 MOL      0.025207
    156 H68        -6.0070   -1.9570   -3.8360 hc        1 MOL      0.025207
    157 H69        -6.2530   -4.2240   -3.3520 hc        1 MOL      0.064709
    158 H70        -4.8300   -4.2850   -2.3040 hc        1 MOL      0.064709
    159 N14        -4.4480   -1.7240    0.0970 n         1 MOL      0.024632
    160 C53        -3.6440   -2.1870    1.2230 c3        1 MOL     -0.026991
    161 C54        -4.2830   -1.9350    2.5680 c         1 MOL      0.370639
    162 O24        -4.1980   -2.7900    3.4770 o         1 MOL     -0.562580
    163 C55        -2.1720   -1.7100    1.2200 c3        1 MOL      0.072917
    164 C56        -1.5120   -1.8820   -0.1590 c3        1 MOL     -0.132847
    165 C57        -0.1210   -1.3280   -0.2140 c         1 MOL      0.738778
    166 O25         0.8760   -2.0220   -0.4020 o         1 MOL     -0.743396
    167 O26         0.0580   -0.1030   -0.0290 o         1 MOL     -0.743396
    168 H71        -4.3700   -0.7610   -0.2000 hn        1 MOL      0.084434
    169 H72        -3.6050   -3.2740    1.1450 h1        1 MOL      0.082255
    170 H73        -1.6390   -2.1490    2.0530 hc        1 MOL      0.031268
    171 H74        -2.2520   -0.6400    1.3950 hc        1 MOL      0.031268
    172 H75        -2.2230   -1.5380   -0.9000 hc        1 MOL      0.043860
    173 H76        -1.4440   -2.9440   -0.4020 hc        1 MOL      0.043860
    174 N15        -4.9790   -0.8600    2.6880 n         1 MOL      0.019084
    175 C58        -5.7220   -0.5120    3.8860 c3        1 MOL     -0.262302
    176 H77        -6.7530   -0.2780    3.6190 h1        1 MOL      0.085538
    177 H78        -5.7090   -1.3520    4.5800 h1        1 MOL      0.085538
    178 H79        -5.2640    0.3580    4.3590 h1        1 MOL      0.085538
    179 H80        -5.0620   -0.1680    1.9580 hn        1 MOL      0.066641
    180 Ca1         2.3960    0.1070   -1.3030 Ca        1 MOL      1.746327
    181 O27         0.6360   -0.3620   -3.1330 oh        1 MOL     -0.891024
    182 H81         0.9020   -0.2310   -4.0500 ho        1 MOL      0.431831
    183 H82        -0.2100   -0.8070   -3.1910 ho        1 MOL      0.431831
    184 O28         1.6420    2.5950   -2.0390 oh        1 MOL     -0.891024
    185 H83         2.4820    2.5490   -1.5730 ho        1 MOL      0.431831
    186 H84         1.8240    3.1480   -2.7960 ho        1 MOL      0.431831
@<TRIPOS>BOND
     1    1    2 1   
     2    1    4 1   
     3    1    5 1   
     4    1    6 1   
     5    2    3 2   
     6    2    7 1   
     7    7    8 1   
     8    7   15 1   
     9    8    9 1   
    10    8   11 1   
    11    8   16 1   
    12    9   10 2   
    13    9   19 1   
    14   11   12 1   
    15   11   17 1   
    16   11   18 1   
    17   12   13 1   
    18   12   14 1   
    19   19   20 1   
    20   19   27 1   
    21   20   21 1   
    22   20   23 1   
    23   20   28 1   
    24   21   22 2   
    25   21   38 1   
    26   23   24 1   
    27   23   25 1   
    28   23   29 1   
    29   24   26 1   
    30   24   30 1   
    31   24   31 1   
    32   25   32 1   
    33   25   33 1   
    34   25   34 1   
    35   26   35 1   
    36   26   36 1   
    37   26   37 1   
    38   38   39 1   
    39   38   46 1   
    40   39   40 1   
    41   39   42 1   
    42   39   47 1   
    43   40   41 2   
    44   40   50 1   
    45   42   43 1   
    46   42   48 1   
    47   42   49 1   
    48   43   44 1   
    49   43   45 1   
    50   50   51 1   
    51   50   54 1   
    52   51   52 1   
    53   51   55 1   
    54   51   56 1   
    55   52   53 2   
    56   52   57 1   
    57   57   58 1   
    58   57   65 1   
    59   58   59 1   
    60   58   61 1   
    61   58   66 1   
    62   59   60 2   
    63   59   69 1   
    64   61   62 1   
    65   61   67 1   
    66   61   68 1   
    67   62   63 1   
    68   62   64 1   
    69   69   70 1   
    70   69   73 1   
    71   70   71 1   
    72   70   74 1   
    73   70   75 1   
    74   71   72 2   
    75   71   76 1   
    76   76   77 1   
    77   76   85 1   
    78   77   78 1   
    79   77   80 1   
    80   77   86 1   
    81   78   79 2   
    82   78   93 1   
    83   80   81 1   
    84   80   87 1   
    85   80   88 1   
    86   81   82 1   
    87   81   89 1   
    88   81   90 1   
    89   82   83 1   
    90   82   84 2   
    91   83   91 1   
    92   83   92 1   
    93   93   94 1   
    94   93  100 1   
    95   94   95 1   
    96   94   97 1   
    97   94  101 1   
    98   95   96 2   
    99   95  109 1   
   100   97   98 1   
   101   97   99 1   
   102   97  102 1   
   103   98  103 1   
   104   98  104 1   
   105   98  105 1   
   106   99  106 1   
   107   99  107 1   
   108   99  108 1   
   109  109  110 1   
   110  109  117 1   
   111  110  111 1   
   112  110  113 1   
   113  110  118 1   
   114  111  112 2   
   115  111  123 1   
   116  113  114 1   
   117  113  119 1   
   118  113  120 1   
   119  114  115 1   
   120  114  116 2   
   121  115  121 1   
   122  115  122 1   
   123  123  124 1   
   124  123  135 1   
   125  124  125 1   
   126  124  127 1   
   127  124  136 1   
   128  125  126 2   
   129  125  144 1   
   130  127  128 1   
   131  127  137 1   
   132  127  138 1   
   133  128  129 ar  
   134  128  130 ar  
   135  129  131 ar  
   136  129  139 1   
   137  130  132 ar  
   138  130  140 1   
   139  131  133 ar  
   140  131  141 1   
   141  132  133 ar  
   142  132  142 1   
   143  133  134 1   
   144  134  143 1   
   145  144  145 1   
   146  144  153 1   
   147  145  146 1   
   148  145  148 1   
   149  145  154 1   
   150  146  147 2   
   151  146  159 1   
   152  148  149 1   
   153  148  155 1   
   154  148  156 1   
   155  149  150 1   
   156  149  157 1   
   157  149  158 1   
   158  150  151 1   
   159  150  152 1   
   160  159  160 1   
   161  159  168 1   
   162  160  161 1   
   163  160  163 1   
   164  160  169 1   
   165  161  162 2   
   166  161  174 1   
   167  163  164 1   
   168  163  170 1   
   169  163  171 1   
   170  164  165 1   
   171  164  172 1   
   172  164  173 1   
   173  165  166 1   
   174  165  167 1   
   175  174  175 1   
   176  174  179 1   
   177  175  176 1   
   178  175  177 1   
   179  175  178 1   
   180  181  182 1   
   181  181  183 1   
   182  184  185 1   
   183  184  186 1   
@<TRIPOS>SUBSTRUCTURE
     1 MOL         1 TEMP              0 ****  ****    0 ROOT
