@<TRIPOS>MOLECULE
MOL
  189   185     1     0     0
SMALL
resp


@<TRIPOS>ATOM
      1 C1          0.2410    3.8490   -4.7370 c3        1 MOL     -0.236750
      2 C2          0.6560    2.9850   -3.5460 c         1 MOL      0.527153
      3 O1         -0.1780    2.7620   -2.6970 o         1 MOL     -0.518800
      4 H1          1.0230    3.8210   -5.4960 hc        1 MOL      0.052762
      5 H2         -0.6880    3.4650   -5.1590 hc        1 MOL      0.052762
      6 H3          0.0920    4.8770   -4.4070 hc        1 MOL      0.052762
      7 N1          1.8610    2.5530   -3.5820 n         1 MOL     -0.526007
      8 C3          2.5350    1.9360   -2.3670 c3        1 MOL      0.270860
      9 C4          3.2400    3.0390   -1.6400 c         1 MOL      0.359417
     10 O2          4.4570    3.2410   -1.7960 o         1 MOL     -0.509933
     11 C5          3.3490    0.6390   -2.7080 c3        1 MOL     -0.233226
     12 C6          3.9080   -0.0590   -1.5000 c         1 MOL      0.772980
     13 O3          4.8710   -0.8710   -1.6090 o         1 MOL     -0.670960
     14 O4          3.4170    0.2950   -0.3890 o         1 MOL     -0.670960
     15 H4          2.3830    2.6530   -4.4340 hn        1 MOL      0.335506
     16 H5          1.6870    1.6120   -1.7610 h1        1 MOL     -0.028360
     17 H6          4.1760    1.0080   -3.3160 hc        1 MOL      0.040571
     18 H7          2.6830    0.0260   -3.3160 hc        1 MOL      0.040571
     19 N2          2.6140    3.8350   -0.7380 n         1 MOL     -0.330600
     20 C7          3.2300    5.0560   -0.1140 c3        1 MOL     -0.134909
     21 C8          4.0190    4.6980    1.1370 c         1 MOL      0.561624
     22 O5          4.5670    5.6240    1.6270 o         1 MOL     -0.557293
     23 C9          2.0540    6.1030    0.1430 c3        1 MOL      0.112632
     24 C10         1.2100    6.5290   -1.0880 c3        1 MOL     -0.067981
     25 C11         0.0770    7.4850   -0.7090 c3        1 MOL     -0.088492
     26 C12        -0.4580    7.8630   -2.0750 c3        1 MOL      0.130642
     27 N3         -1.4800    8.9500   -2.0930 n4        1 MOL     -0.496322
     28 H8          1.6310    3.6250   -0.6230 hn        1 MOL      0.283121
     29 H9          3.8930    5.5390   -0.8290 h1        1 MOL      0.125657
     30 H10         2.4970    7.0030    0.5520 hc        1 MOL      0.008858
     31 H11         1.4140    5.7210    0.9390 hc        1 MOL      0.008858
     32 H12         0.7150    5.5920   -1.3510 hc        1 MOL      0.023168
     33 H13         1.7840    7.0360   -1.8660 hc        1 MOL      0.023168
     34 H14         0.5090    8.3250   -0.1610 hc        1 MOL      0.051317
     35 H15        -0.6450    7.0000   -0.0590 hc        1 MOL      0.051317
     36 H16        -0.8600    7.0380   -2.6700 hx        1 MOL      0.082582
     37 H17         0.3150    8.2030   -2.7650 hx        1 MOL      0.082582
     38 H18        -2.2830    8.5990   -1.6080 hn        1 MOL      0.355797
     39 H19        -1.1590    9.7580   -1.5760 hn        1 MOL      0.355797
     40 H20        -1.6990    9.2040   -3.0470 hn        1 MOL      0.355797
     41 N4          4.1190    3.4050    1.5240 n         1 MOL     -0.179720
     42 C13         5.0220    3.0550    2.5380 c3        1 MOL     -0.276646
     43 C14         6.0410    1.9820    2.1460 c         1 MOL      0.636806
     44 O6          6.7230    1.4450    3.0260 o         1 MOL     -0.538036
     45 C15         4.3420    2.8490    3.9250 c3        1 MOL     -0.068124
     46 C16         3.1930    1.8240    3.8830 c         1 MOL      0.694463
     47 O7          2.6320    1.6370    5.0060 o         1 MOL     -0.679873
     48 O8          2.8360    1.2410    2.8080 o         1 MOL     -0.679873
     49 H21         3.6780    2.6580    1.0100 hn        1 MOL      0.095711
     50 H22         5.6620    3.8970    2.7730 h1        1 MOL      0.145773
     51 H23         3.7460    3.7170    4.2060 hc        1 MOL      0.045723
     52 H24         4.9840    2.7280    4.8040 hc        1 MOL      0.045723
     53 N5          6.2990    1.7510    0.8490 n         1 MOL     -0.435352
     54 C17         7.4890    1.1130    0.3460 c3        1 MOL     -0.171207
     55 C18         7.6250   -0.3780    0.7370 c         1 MOL      0.418522
     56 O9          8.8000   -0.8610    0.6260 o         1 MOL     -0.571593
     57 H25         5.5610    1.9400    0.1830 hn        1 MOL      0.299850
     58 H26         8.3240    1.6740    0.7770 h1        1 MOL      0.127410
     59 H27         7.5380    1.3020   -0.7220 h1        1 MOL      0.127410
     60 N6          6.5570   -1.1080    1.1050 n         1 MOL     -0.070180
     61 C19         6.7330   -2.4920    1.5680 c3        1 MOL     -0.170344
     62 C20         6.5670   -3.5850    0.4790 c         1 MOL      0.411743
     63 O10         6.7690   -4.8280    0.8040 o         1 MOL     -0.552132
     64 C21         5.6240   -2.7130    2.6270 c3        1 MOL     -0.036146
     65 C22         4.2080   -2.2990    2.2460 c         1 MOL      0.564158
     66 O11         3.4030   -2.0020    3.1690 o         1 MOL     -0.677450
     67 O12         3.8520   -2.2610    1.0660 o         1 MOL     -0.677450
     68 H28         5.6560   -0.6640    1.0890 hn        1 MOL      0.192773
     69 H29         7.6490   -2.7270    2.1220 h1        1 MOL      0.154157
     70 H30         5.9140   -2.1960    3.5440 hc        1 MOL      0.033181
     71 H31         5.6580   -3.7870    2.7870 hc        1 MOL      0.033181
     72 N7          6.2920   -3.1660   -0.7490 n         1 MOL     -0.194020
     73 C23         6.0110   -4.0490   -1.8920 c3        1 MOL     -0.213327
     74 C24         4.5360   -4.3630   -2.1360 c         1 MOL      0.540804
     75 O13         4.2940   -5.2640   -2.9420 o         1 MOL     -0.573575
     76 H32         6.0840   -2.1820   -0.7840 hn        1 MOL      0.243952
     77 H33         6.5120   -5.0120   -1.7870 h1        1 MOL      0.121170
     78 H34         6.4650   -3.4630   -2.6990 h1        1 MOL      0.121170
     79 N8          3.6480   -3.7760   -1.3710 n         1 MOL     -0.145224
     80 C25         2.2810   -4.3600   -1.2050 c3        1 MOL     -0.350135
     81 C26         1.2160   -3.2750   -1.3050 c         1 MOL      0.897624
     82 O14         1.4760   -2.1900   -0.7560 o         1 MOL     -0.702503
     83 C27         2.0840   -5.1510    0.0910 c3        1 MOL      0.378241
     84 C28         3.0420   -6.4010    0.0390 c3        1 MOL     -0.444819
     85 O15         2.4680   -4.4390    1.2030 oh        1 MOL     -0.593399
     86 H35         3.9670   -3.0370   -0.7510 hn        1 MOL      0.101411
     87 H36         2.0760   -5.0900   -1.9910 h1        1 MOL      0.112801
     88 H37         1.0220   -5.3910    0.2160 h1        1 MOL      0.009824
     89 H38         3.1920   -3.8350    0.9970 ho        1 MOL      0.481665
     90 H39         4.0960   -6.1420   -0.0610 hc        1 MOL      0.118086
     91 H40         2.9060   -6.9380    0.9870 hc        1 MOL      0.118086
     92 H41         2.7570   -7.1160   -0.7260 hc        1 MOL      0.118086
     93 N9          0.1670   -3.5250   -2.1070 n         1 MOL     -0.758617
     94 C29        -0.9350   -2.6010   -2.2670 c3        1 MOL      0.129626
     95 C30        -2.1750   -3.1430   -1.5280 c         1 MOL      0.486184
     96 O16        -2.6730   -4.2620   -1.8020 o         1 MOL     -0.554171
     97 C31        -1.2370   -2.2620   -3.7720 c3        1 MOL     -0.030953
     98 C32        -0.1060   -1.3530   -4.2920 c3        1 MOL      0.224690
     99 C33        -2.5470   -1.5050   -3.9560 c3        1 MOL     -0.154863
    100 C34        -0.2110   -0.7570   -5.7220 c3        1 MOL     -0.451481
    101 H42         0.1270   -4.4040   -2.6020 hn        1 MOL      0.374498
    102 H43        -0.7450   -1.6160   -1.8390 h1        1 MOL      0.044182
    103 H44        -1.2720   -3.1510   -4.4020 hc        1 MOL      0.039931
    104 H45         0.8250   -1.9030   -4.3260 hc        1 MOL      0.004067
    105 H46         0.1790   -0.6130   -3.5530 hc        1 MOL      0.004067
    106 H47        -3.3980   -1.9240   -3.4090 hc        1 MOL      0.021679
    107 H48        -2.4630   -0.4360   -3.7540 hc        1 MOL      0.021679
    108 H49        -2.8440   -1.5000   -5.0030 hc        1 MOL      0.021679
    109 H50        -0.9850    0.0110   -5.7000 hc        1 MOL      0.112212
    110 H51         0.7410   -0.2970   -5.9980 hc        1 MOL      0.112212
    111 H52        -0.4960   -1.5710   -6.3820 hc        1 MOL      0.112212
    112 N10        -2.7020   -2.3770   -0.5290 n         1 MOL     -0.056254
    113 C35        -3.8520   -2.7610    0.3700 c3        1 MOL     -0.235014
    114 C36        -5.1720   -2.3950   -0.3040 c         1 MOL      0.304095
    115 O17        -5.2030   -1.7000   -1.2600 o         1 MOL     -0.223010
    116 C37        -3.7300   -1.9550    1.6530 c3        1 MOL      0.357438
    117 C38        -2.7350   -2.5780    2.6270 c3        1 MOL     -0.669356
    118 O18        -3.4160   -0.5430    1.4400 oh        1 MOL     -0.518525
    119 H53        -2.1740   -1.5540   -0.2940 hn        1 MOL      0.026519
    120 H54        -3.8100   -3.8090    0.6330 h1        1 MOL      0.140242
    121 H55        -4.6810   -1.8340    2.1590 h1        1 MOL      0.028530
    122 H56        -2.4630   -0.5100    1.3110 ho        1 MOL      0.375524
    123 H57        -3.0230   -2.2850    3.6410 hc        1 MOL      0.185994
    124 H58        -2.7880   -3.6530    2.4590 hc        1 MOL      0.185994
    125 H59        -1.7000   -2.2770    2.4540 hc        1 MOL      0.185994
    126 N11        -6.3000   -2.8650    0.2470 n         1 MOL     -0.279145
    127 C39        -7.5950   -2.3720   -0.1840 c3        1 MOL     -0.114299
    128 C40        -7.6280   -0.8580   -0.1540 c         1 MOL      0.337331
    129 O19        -8.1640   -0.2650   -1.1490 o         1 MOL     -0.477553
    130 C41        -8.8310   -2.9560    0.6430 c3        1 MOL      0.256696
    131 C42        -9.1500   -4.4160    0.3510 c3        1 MOL     -0.357334
    132 O20        -8.5090   -2.9830    2.0200 oh        1 MOL     -0.631041
    133 H60        -6.3090   -3.5240    1.0220 hn        1 MOL      0.275339
    134 H61        -7.6500   -2.5930   -1.2450 h1        1 MOL      0.127769
    135 H62        -9.7090   -2.3320    0.4470 h1        1 MOL      0.061563
    136 H63        -9.3380   -3.0860    2.4910 ho        1 MOL      0.408026
    137 H64        -9.9930   -4.7020    0.9740 hc        1 MOL      0.104168
    138 H65        -9.4820   -4.5090   -0.6770 hc        1 MOL      0.104168
    139 H66        -8.2810   -5.0440    0.5520 hc        1 MOL      0.104168
    140 N12        -7.0570   -0.2360    0.8770 n         1 MOL     -0.288378
    141 C43        -6.8190    1.1800    1.0480 c3        1 MOL      0.088169
    142 C44        -6.1140    1.7770   -0.1880 c         1 MOL      0.357689
    143 O21        -6.6110    2.6700   -0.8470 o         1 MOL     -0.531590
    144 C45        -6.1790    1.4030    2.3790 c3        1 MOL     -0.124489
    145 C46        -7.1770    1.2750    3.5640 c3        1 MOL      0.184036
    146 C47        -6.4810    1.7430    4.8510 c3        1 MOL     -0.061875
    147 C48        -7.2240    1.2480    6.1420 c3        1 MOL      0.078453
    148 N13        -6.9280    2.0490    7.3410 n4        1 MOL     -0.288780
    149 H67        -6.6740   -0.8490    1.5850 hn        1 MOL      0.226069
    150 H68        -7.8140    1.6350    1.1140 h1        1 MOL      0.057994
    151 H69        -5.8910    2.4510    2.2650 hc        1 MOL      0.027785
    152 H70        -5.2400    0.8780    2.5670 hc        1 MOL      0.027785
    153 H71        -7.5600    0.2550    3.6580 hc        1 MOL     -0.031590
    154 H72        -8.0560    1.9050    3.3920 hc        1 MOL     -0.031590
    155 H73        -6.5020    2.8360    4.8010 hc        1 MOL      0.043991
    156 H74        -5.4690    1.3650    4.9490 hc        1 MOL      0.043991
    157 H75        -6.8930    0.2240    6.3110 hx        1 MOL      0.059304
    158 H76        -8.2930    1.2940    5.9490 hx        1 MOL      0.059304
    159 H77        -5.9610    2.0240    7.6530 hn        1 MOL      0.292285
    160 H78        -7.2010    3.0180    7.2840 hn        1 MOL      0.292285
    161 H79        -7.4040    1.6530    8.1390 hn        1 MOL      0.292285
    162 N14        -4.9290    1.3200   -0.4880 n         1 MOL      0.008248
    163 C49        -4.0470    1.7700   -1.5960 c3        1 MOL     -0.154011
    164 C50        -4.5140    1.4580   -3.0100 c         1 MOL      0.458179
    165 O22        -4.3080    2.2980   -3.9060 o         1 MOL     -0.575375
    166 C51        -2.6190    1.1860   -1.4160 c3        1 MOL     -0.071962
    167 C52        -1.8950    1.6980   -0.1790 c3        1 MOL     -0.094774
    168 C53        -0.6760    0.8810    0.1500 c         1 MOL      0.798850
    169 O23        -0.8000   -0.2440    0.6110 o         1 MOL     -0.722828
    170 O24         0.3940    1.4930    0.3600 o         1 MOL     -0.722828
    171 H80        -4.5690    0.6130    0.1460 hn        1 MOL      0.054265
    172 H81        -4.0120    2.8470   -1.4590 h1        1 MOL      0.090199
    173 H82        -1.8930    1.1920   -2.2300 hc        1 MOL      0.115147
    174 H83        -2.7780    0.1320   -1.1740 hc        1 MOL      0.115147
    175 H84        -2.5900    1.7160    0.6650 hc        1 MOL      0.002239
    176 H85        -1.6450    2.7330   -0.4230 hc        1 MOL      0.002239
    177 N15        -5.1950    0.3490   -3.2360 n         1 MOL      0.016185
    178 C54        -5.9880    0.1310   -4.4870 c3        1 MOL     -0.264852
    179 H86        -6.9900    0.5390   -4.3580 h1        1 MOL      0.098344
    180 H87        -5.4960    0.6320   -5.3210 h1        1 MOL      0.098344
    181 H88        -6.0550   -0.9380   -4.6930 h1        1 MOL      0.098344
    182 H89        -5.3140   -0.3600   -2.5290 hn        1 MOL      0.059686
    183 Ca1         1.7520   -0.6130    1.3170 Ca        1 MOL      1.764564
    184 O25         0.4970   -0.2250    3.9340 oh        1 MOL     -0.866935
    185 H90         0.2890   -0.7540    4.7040 ho        1 MOL      0.396121
    186 H91         1.2260    0.3380    4.2100 ho        1 MOL      0.396121
    187 O26         0.6410   -2.8080    2.2380 oh        1 MOL     -0.866935
    188 H92         0.3080   -2.8700    3.1370 ho        1 MOL      0.396121
    189 H93         0.9880   -3.6780    2.0530 ho        1 MOL      0.396121
@<TRIPOS>BOND
     1    1    2 1   
     2    1    4 1   
     3    1    5 1   
     4    1    6 1   
     5    2    3 2   
     6    2    7 1   
     7    7    8 1   
     8    7   15 1   
     9    8    9 1   
    10    8   11 1   
    11    8   16 1   
    12    9   10 2   
    13    9   19 1   
    14   11   12 1   
    15   11   17 1   
    16   11   18 1   
    17   12   13 1   
    18   12   14 1   
    19   19   20 1   
    20   19   28 1   
    21   20   21 1   
    22   20   23 1   
    23   20   29 1   
    24   21   22 2   
    25   21   41 1   
    26   23   24 1   
    27   23   30 1   
    28   23   31 1   
    29   24   25 1   
    30   24   32 1   
    31   24   33 1   
    32   25   26 1   
    33   25   34 1   
    34   25   35 1   
    35   26   27 1   
    36   26   36 1   
    37   26   37 1   
    38   27   38 1   
    39   27   39 1   
    40   27   40 1   
    41   41   42 1   
    42   41   49 1   
    43   42   43 1   
    44   42   45 1   
    45   42   50 1   
    46   43   44 2   
    47   43   53 1   
    48   45   46 1   
    49   45   51 1   
    50   45   52 1   
    51   46   47 1   
    52   46   48 1   
    53   53   54 1   
    54   53   57 1   
    55   54   55 1   
    56   54   58 1   
    57   54   59 1   
    58   55   56 2   
    59   55   60 1   
    60   60   61 1   
    61   60   68 1   
    62   61   62 1   
    63   61   64 1   
    64   61   69 1   
    65   62   63 2   
    66   62   72 1   
    67   64   65 1   
    68   64   70 1   
    69   64   71 1   
    70   65   66 1   
    71   65   67 1   
    72   72   73 1   
    73   72   76 1   
    74   73   74 1   
    75   73   77 1   
    76   73   78 1   
    77   74   75 2   
    78   74   79 1   
    79   79   80 1   
    80   79   86 1   
    81   80   81 1   
    82   80   83 1   
    83   80   87 1   
    84   81   82 2   
    85   81   93 1   
    86   83   84 1   
    87   83   85 1   
    88   83   88 1   
    89   84   90 1   
    90   84   91 1   
    91   84   92 1   
    92   85   89 1   
    93   93   94 1   
    94   93  101 1   
    95   94   95 1   
    96   94   97 1   
    97   94  102 1   
    98   95   96 2   
    99   95  112 1   
   100   97   98 1   
   101   97   99 1   
   102   97  103 1   
   103   98  100 1   
   104   98  104 1   
   105   98  105 1   
   106   99  106 1   
   107   99  107 1   
   108   99  108 1   
   109  100  109 1   
   110  100  110 1   
   111  100  111 1   
   112  112  113 1   
   113  112  119 1   
   114  113  114 1   
   115  113  116 1   
   116  113  120 1   
   117  114  115 2   
   118  114  126 1   
   119  116  117 1   
   120  116  118 1   
   121  116  121 1   
   122  117  123 1   
   123  117  124 1   
   124  117  125 1   
   125  118  122 1   
   126  126  127 1   
   127  126  133 1   
   128  127  128 1   
   129  127  130 1   
   130  127  134 1   
   131  128  129 2   
   132  128  140 1   
   133  130  131 1   
   134  130  132 1   
   135  130  135 1   
   136  131  137 1   
   137  131  138 1   
   138  131  139 1   
   139  132  136 1   
   140  140  141 1   
   141  140  149 1   
   142  141  142 1   
   143  141  144 1   
   144  141  150 1   
   145  142  143 2   
   146  142  162 1   
   147  144  145 1   
   148  144  151 1   
   149  144  152 1   
   150  145  146 1   
   151  145  153 1   
   152  145  154 1   
   153  146  147 1   
   154  146  155 1   
   155  146  156 1   
   156  147  148 1   
   157  147  157 1   
   158  147  158 1   
   159  148  159 1   
   160  148  160 1   
   161  148  161 1   
   162  162  163 1   
   163  162  171 1   
   164  163  164 1   
   165  163  166 1   
   166  163  172 1   
   167  164  165 2   
   168  164  177 1   
   169  166  167 1   
   170  166  173 1   
   171  166  174 1   
   172  167  168 1   
   173  167  175 1   
   174  167  176 1   
   175  168  169 1   
   176  168  170 1   
   177  177  178 1   
   178  177  182 1   
   179  178  179 1   
   180  178  180 1   
   181  178  181 1   
   182  184  185 1   
   183  184  186 1   
   184  187  188 1   
   185  187  189 1   
@<TRIPOS>SUBSTRUCTURE
     1 MOL         1 TEMP              0 ****  ****    0 ROOT
