@<TRIPOS>MOLECULE
MOL
  189   185     1     0     0
SMALL
resp


@<TRIPOS>ATOM
      1 C1         -0.0900    3.4290   -4.8530 c3        1 MOL     -0.327040
      2 C2          0.5280    3.0760   -3.4650 c         1 MOL      0.538853
      3 O1         -0.0340    3.4080   -2.4120 o         1 MOL     -0.615197
      4 H1         -1.1500    3.6530   -4.7310 hc        1 MOL      0.097113
      5 H2          0.4190    4.3000   -5.2670 hc        1 MOL      0.097113
      6 H3          0.0260    2.5830   -5.5290 hc        1 MOL      0.097113
      7 N1          1.6450    2.3160   -3.4220 n         1 MOL     -0.404358
      8 C3          2.2960    1.8490   -2.2130 c3        1 MOL      0.076609
      9 C4          3.0130    2.9830   -1.4760 c         1 MOL      0.412449
     10 O2          4.2550    2.9170   -1.2850 o         1 MOL     -0.410825
     11 C5          3.2040    0.6980   -2.6600 c3        1 MOL     -0.226748
     12 C6          3.8890   -0.0820   -1.4610 c         1 MOL      0.654609
     13 O3          3.4630    0.0360   -0.3100 o         1 MOL     -0.643569
     14 O4          4.7990   -0.8870   -1.7780 o         1 MOL     -0.643569
     15 H4          2.0610    1.9330   -4.2660 hn        1 MOL      0.280810
     16 H5          1.5730    1.3620   -1.5490 h1        1 MOL      0.085487
     17 H6          4.0360    1.0800   -3.2570 hc        1 MOL      0.055891
     18 H7          2.6490   -0.0100   -3.2820 hc        1 MOL      0.055891
     19 N2          2.2120    3.9760   -1.0210 n         1 MOL     -0.405992
     20 C7          2.7250    5.1570   -0.3500 c3        1 MOL     -0.046627
     21 C8          3.6920    4.8450    0.7610 c         1 MOL      0.535067
     22 O5          4.5320    5.6860    1.0180 o         1 MOL     -0.576950
     23 C9          1.5560    5.9780    0.2150 c3        1 MOL     -0.199414
     24 C10         0.8010    6.6260   -1.0270 c3        1 MOL      0.090501
     25 C11        -0.2610    7.6840   -0.5580 c3        1 MOL     -0.091504
     26 C12        -0.7890    8.6050   -1.6840 c3        1 MOL      0.054270
     27 N3         -1.2540    7.7320   -2.8620 n4        1 MOL     -0.352616
     28 H8          1.2350    3.9510   -1.2910 hn        1 MOL      0.325289
     29 H9          3.3080    5.7010   -1.0900 h1        1 MOL      0.102156
     30 H10         2.0560    6.7680    0.7750 hc        1 MOL      0.094470
     31 H11         0.8940    5.3700    0.8310 hc        1 MOL      0.094470
     32 H12         0.2380    5.7890   -1.4430 hc        1 MOL     -0.001780
     33 H13         1.5360    7.0020   -1.7370 hc        1 MOL     -0.001780
     34 H14         0.2020    8.3010    0.2180 hc        1 MOL      0.065653
     35 H15        -1.0800    7.1520   -0.0680 hc        1 MOL      0.065653
     36 H16        -0.0210    9.2620   -2.1030 hx        1 MOL      0.073780
     37 H17        -1.5480    9.2770   -1.2910 hx        1 MOL      0.073780
     38 H18        -1.7760    6.9430   -2.4930 hn        1 MOL      0.323548
     39 H19        -1.8480    8.2190   -3.5140 hn        1 MOL      0.323548
     40 H20        -0.4530    7.3520   -3.3560 hn        1 MOL      0.323548
     41 N4          3.5300    3.7730    1.5550 n         1 MOL     -0.375480
     42 C13         4.5140    3.5310    2.7170 c3        1 MOL      0.154569
     43 C14         5.7200    2.6450    2.2670 c         1 MOL      0.295516
     44 O6          6.6970    2.4690    3.0060 o         1 MOL     -0.511084
     45 C15         3.8120    2.9000    3.9360 c3        1 MOL     -0.444645
     46 C16         2.8400    1.7300    3.6140 c         1 MOL      0.956976
     47 O7          2.0160    1.4140    4.5170 o         1 MOL     -0.781637
     48 O8          2.8240    1.2040    2.5320 o         1 MOL     -0.781637
     49 H21         2.8870    3.0370    1.3210 hn        1 MOL      0.279261
     50 H22         4.9950    4.4740    2.9780 h1        1 MOL      0.106068
     51 H23         3.3150    3.7230    4.4590 hc        1 MOL      0.102415
     52 H24         4.6030    2.4550    4.5490 hc        1 MOL      0.102415
     53 N5          5.7700    2.1940    0.9540 n         1 MOL      0.043346
     54 C17         6.8470    1.5250    0.1770 c3        1 MOL     -0.202986
     55 C18         7.2030    0.1290    0.7470 c         1 MOL      0.596307
     56 O9          8.3450   -0.1720    0.8820 o         1 MOL     -0.588813
     57 H25         4.9650    2.4410    0.3990 hn        1 MOL     -0.022015
     58 H26         7.6500    2.2690    0.1580 h1        1 MOL      0.097490
     59 H27         6.5130    1.3550   -0.8440 h1        1 MOL      0.097490
     60 N6          6.2080   -0.6860    1.1710 n         1 MOL     -0.283458
     61 C19         6.5020   -1.9940    1.8100 c3        1 MOL      0.002439
     62 C20         6.5550   -3.1590    0.8840 c         1 MOL      0.370865
     63 O10         6.7980   -4.2960    1.3190 o         1 MOL     -0.534962
     64 C21         5.4740   -2.2760    2.9260 c3        1 MOL     -0.327316
     65 C22         4.0600   -2.3670    2.3680 c         1 MOL      0.819379
     66 O11         3.8300   -2.5310    1.1900 o         1 MOL     -0.729125
     67 O12         3.1090   -2.0830    3.0950 o         1 MOL     -0.729125
     68 H28         5.2760   -0.4910    0.8110 hn        1 MOL      0.189089
     69 H29         7.4840   -1.9730    2.2910 h1        1 MOL      0.137567
     70 H30         5.4710   -1.4110    3.5970 hc        1 MOL      0.102683
     71 H31         5.7080   -3.1520    3.5240 hc        1 MOL      0.102683
     72 N7          6.3850   -2.9100   -0.4030 n         1 MOL     -0.222012
     73 C23         6.3740   -3.7610   -1.5850 c3        1 MOL      0.053810
     74 C24         5.0230   -4.4200   -1.9730 c         1 MOL      0.435033
     75 O13         5.0040   -5.5190   -2.5350 o         1 MOL     -0.561420
     76 H32         6.1240   -1.9510   -0.5760 hn        1 MOL      0.195420
     77 H33         7.1550   -4.5220   -1.5210 h1        1 MOL      0.040177
     78 H34         6.6960   -3.1540   -2.4310 h1        1 MOL      0.040177
     79 N8          3.8960   -3.8880   -1.4910 n         1 MOL     -0.108205
     80 C25         2.5400   -4.4310   -1.5900 c3        1 MOL     -0.416563
     81 C26         1.3260   -3.4000   -1.5150 c         1 MOL      0.765138
     82 O14         1.3450   -2.4480   -0.7010 o         1 MOL     -0.600726
     83 C27         2.3320   -5.4350   -0.3760 c3        1 MOL      0.632433
     84 C28         2.7490   -6.9260   -0.8080 c3        1 MOL     -0.749092
     85 O15         3.0640   -5.1150    0.8010 oh        1 MOL     -0.682490
     86 H35         3.9700   -2.9620   -1.0890 hn        1 MOL      0.173265
     87 H36         2.5070   -4.9640   -2.5430 h1        1 MOL      0.152110
     88 H37         1.2930   -5.5010   -0.0670 h1        1 MOL     -0.059272
     89 H38         3.3950   -4.2150    0.8030 ho        1 MOL      0.497093
     90 H39         2.2700   -7.2570   -1.7240 hc        1 MOL      0.188145
     91 H40         3.8230   -7.0920   -0.9070 hc        1 MOL      0.188145
     92 H41         2.4880   -7.4760    0.0950 hc        1 MOL      0.188145
     93 N9          0.2990   -3.5710   -2.3610 n         1 MOL     -0.766955
     94 C29        -0.7870   -2.5650   -2.4090 c3        1 MOL      0.228705
     95 C30        -2.0050   -3.1150   -1.6710 c         1 MOL      0.509354
     96 O16        -2.7260   -4.0070   -2.1750 o         1 MOL     -0.550076
     97 C31        -1.0460   -2.2450   -3.8770 c3        1 MOL      0.104408
     98 C32         0.1970   -1.7030   -4.6570 c3        1 MOL      0.227537
     99 C33        -2.1270   -1.0840   -3.8680 c3        1 MOL     -0.398928
    100 C34        -0.0370   -1.5700   -6.1960 c3        1 MOL     -0.401984
    101 H42         0.2650   -4.4010   -2.9290 hn        1 MOL      0.353715
    102 H43        -0.5220   -1.6330   -1.9170 h1        1 MOL     -0.027687
    103 H44        -1.5020   -3.0990   -4.3970 hc        1 MOL      0.004683
    104 H45         1.0480   -2.3550   -4.4730 hc        1 MOL     -0.021245
    105 H46         0.5070   -0.7150   -4.3400 hc        1 MOL     -0.021245
    106 H47        -3.0270   -1.5080   -3.4150 hc        1 MOL      0.088281
    107 H48        -1.7230   -0.3090   -3.2040 hc        1 MOL      0.088281
    108 H49        -2.2390   -0.6230   -4.8500 hc        1 MOL      0.088281
    109 H50        -0.0950   -2.5870   -6.5890 hc        1 MOL      0.095549
    110 H51        -0.8090   -0.8120   -6.3740 hc        1 MOL      0.095549
    111 H52         0.8370   -1.0890   -6.6430 hc        1 MOL      0.095549
    112 N10        -2.3900   -2.4560   -0.5520 n         1 MOL     -0.265991
    113 C35        -3.6180   -2.7460    0.1520 c3        1 MOL     -0.022281
    114 C36        -4.8890   -2.2190   -0.5280 c         1 MOL      0.280943
    115 O17        -4.7930   -1.2500   -1.2530 o         1 MOL     -0.226040
    116 C37        -3.5780   -2.2400    1.5900 c3        1 MOL      0.487963
    117 C38        -4.6500   -2.8040    2.5110 c3        1 MOL     -0.746682
    118 O18        -2.3470   -2.5000    2.1300 oh        1 MOL     -0.599749
    119 H53        -1.8830   -1.6300   -0.2410 hn        1 MOL      0.290282
    120 H54        -3.7700   -3.8140    0.1950 h1        1 MOL      0.048997
    121 H55        -3.6500   -1.1530    1.6330 h1        1 MOL      0.006682
    122 H56        -1.6990   -2.2440    1.4650 ho        1 MOL      0.268700
    123 H57        -5.6530   -2.5850    2.1350 hc        1 MOL      0.207008
    124 H58        -4.4090   -3.8650    2.6760 hc        1 MOL      0.207008
    125 H59        -4.5210   -2.3220    3.4780 hc        1 MOL      0.207008
    126 N11        -6.0540   -2.7650   -0.3190 n         1 MOL     -0.270336
    127 C39        -7.3180   -2.1820   -0.6720 c3        1 MOL      0.001243
    128 C40        -7.3820   -0.6690   -0.4480 c         1 MOL      0.190948
    129 O19        -7.6510    0.1590   -1.3060 o         1 MOL     -0.389164
    130 C41        -8.5110   -2.7160    0.1420 c3        1 MOL      0.252493
    131 C42        -9.0230   -4.0620   -0.3380 c3        1 MOL     -0.520550
    132 O20        -7.9840   -2.8250    1.4380 oh        1 MOL     -0.612548
    133 H60        -6.1160   -3.5500    0.3150 hn        1 MOL      0.235043
    134 H61        -7.5400   -2.3660   -1.7260 h1        1 MOL      0.120768
    135 H62        -9.4130   -2.1120    0.1610 h1        1 MOL      0.108229
    136 H63        -7.8450   -3.7650    1.6020 ho        1 MOL      0.399652
    137 H64        -9.2980   -4.0220   -1.3940 hc        1 MOL      0.153590
    138 H65        -8.2560   -4.8270   -0.2720 hc        1 MOL      0.153590
    139 H66        -9.8760   -4.2650    0.3010 hc        1 MOL      0.153590
    140 N12        -6.9430   -0.2450    0.8390 n         1 MOL     -0.060165
    141 C43        -6.9580    1.1690    1.3330 c3        1 MOL     -0.170873
    142 C44        -5.8160    2.0210    0.7570 c         1 MOL      0.491194
    143 O21        -5.5820    3.1610    1.1710 o         1 MOL     -0.583570
    144 C45        -7.0340    1.1550    2.8890 c3        1 MOL     -0.142051
    145 C46        -5.7680    0.6160    3.5190 c3        1 MOL     -0.171014
    146 C47        -6.1470   -0.2380    4.7320 c3        1 MOL     -0.210109
    147 C48        -6.8010    0.6580    5.8060 c3        1 MOL      0.195477
    148 N13        -5.8720    1.1970    6.8520 n4        1 MOL     -0.299791
    149 H67        -6.8570   -0.8940    1.6010 hn        1 MOL      0.201792
    150 H68        -7.8690    1.6020    0.9040 h1        1 MOL      0.133720
    151 H69        -7.9170    0.6080    3.2520 hc        1 MOL      0.088688
    152 H70        -7.2650    2.1540    3.2420 hc        1 MOL      0.088688
    153 H71        -5.1890    1.4760    3.8670 hc        1 MOL      0.097809
    154 H72        -5.1730    0.0730    2.7780 hc        1 MOL      0.097809
    155 H73        -5.4140   -0.9410    5.1170 hc        1 MOL      0.078384
    156 H74        -6.8500   -1.0350    4.4780 hc        1 MOL      0.078384
    157 H75        -7.6330    0.2140    6.3400 hx        1 MOL      0.040935
    158 H76        -7.2770    1.5560    5.4040 hx        1 MOL      0.040935
    159 H77        -5.6610    0.4020    7.4330 hn        1 MOL      0.293060
    160 H78        -4.9990    1.4600    6.4170 hn        1 MOL      0.293060
    161 H79        -6.2980    1.8840    7.4660 hn        1 MOL      0.293060
    162 N14        -5.0400    1.4380   -0.0970 n         1 MOL      0.167927
    163 C49        -4.0160    2.0420   -0.9570 c3        1 MOL     -0.264948
    164 C50        -4.4260    2.0820   -2.4350 c         1 MOL      0.462708
    165 O22        -3.8790    2.8990   -3.2030 o         1 MOL     -0.545836
    166 C51        -2.6900    1.2830   -0.8550 c3        1 MOL      0.031149
    167 C52        -1.9440    1.5840    0.3980 c3        1 MOL     -0.109540
    168 C53        -0.6770    0.7940    0.5390 c         1 MOL      0.627384
    169 O23         0.3710    1.3230    0.8260 o         1 MOL     -0.673386
    170 O24        -0.7220   -0.4570    0.4720 o         1 MOL     -0.673386
    171 H80        -5.2800    0.5210   -0.4340 hn        1 MOL     -0.360603
    172 H81        -3.8560    3.0960   -0.7170 h1        1 MOL      0.137720
    173 H82        -2.1650    1.8060   -1.6560 hc        1 MOL      0.094928
    174 H83        -2.7430    0.2130   -1.0020 hc        1 MOL      0.094928
    175 H84        -2.5700    1.3340    1.2620 hc        1 MOL      0.029381
    176 H85        -1.7650    2.6400    0.5460 hc        1 MOL      0.029381
    177 N15        -5.4730    1.2990   -2.8320 n         1 MOL     -0.168254
    178 C54        -5.8940    1.1500   -4.2200 c3        1 MOL     -0.285272
    179 H86        -6.8400    1.6690   -4.3700 h1        1 MOL      0.116144
    180 H87        -5.1370    1.5770   -4.8780 h1        1 MOL      0.116144
    181 H88        -6.0210    0.0920   -4.4490 h1        1 MOL      0.116144
    182 H89        -5.9870    0.8490   -2.0870 hn        1 MOL      0.218330
    183 Ca1         1.7100   -0.8590    1.2510 Ca        1 MOL      1.726635
    184 O25         0.4050   -3.1400    2.0150 oh        1 MOL     -0.875270
    185 H90         0.7740   -3.6440    2.7330 ho        1 MOL      0.407997
    186 H91        -0.5330   -3.0750    2.2140 ho        1 MOL      0.407997
    187 O26         0.4230   -0.3790    3.4520 oh        1 MOL     -0.875270
    188 H92         1.1100    0.0340    3.9770 ho        1 MOL      0.407997
    189 H93        -0.3960   -0.0460    3.8160 ho        1 MOL      0.407997
@<TRIPOS>BOND
     1    1    2 1   
     2    1    4 1   
     3    1    5 1   
     4    1    6 1   
     5    2    3 2   
     6    2    7 1   
     7    7    8 1   
     8    7   15 1   
     9    8    9 1   
    10    8   11 1   
    11    8   16 1   
    12    9   10 2   
    13    9   19 1   
    14   11   12 1   
    15   11   17 1   
    16   11   18 1   
    17   12   13 1   
    18   12   14 1   
    19   19   20 1   
    20   19   28 1   
    21   20   21 1   
    22   20   23 1   
    23   20   29 1   
    24   21   22 2   
    25   21   41 1   
    26   23   24 1   
    27   23   30 1   
    28   23   31 1   
    29   24   25 1   
    30   24   32 1   
    31   24   33 1   
    32   25   26 1   
    33   25   34 1   
    34   25   35 1   
    35   26   27 1   
    36   26   36 1   
    37   26   37 1   
    38   27   38 1   
    39   27   39 1   
    40   27   40 1   
    41   41   42 1   
    42   41   49 1   
    43   42   43 1   
    44   42   45 1   
    45   42   50 1   
    46   43   44 2   
    47   43   53 1   
    48   45   46 1   
    49   45   51 1   
    50   45   52 1   
    51   46   47 1   
    52   46   48 1   
    53   53   54 1   
    54   53   57 1   
    55   54   55 1   
    56   54   58 1   
    57   54   59 1   
    58   55   56 2   
    59   55   60 1   
    60   60   61 1   
    61   60   68 1   
    62   61   62 1   
    63   61   64 1   
    64   61   69 1   
    65   62   63 2   
    66   62   72 1   
    67   64   65 1   
    68   64   70 1   
    69   64   71 1   
    70   65   66 1   
    71   65   67 1   
    72   72   73 1   
    73   72   76 1   
    74   73   74 1   
    75   73   77 1   
    76   73   78 1   
    77   74   75 2   
    78   74   79 1   
    79   79   80 1   
    80   79   86 1   
    81   80   81 1   
    82   80   83 1   
    83   80   87 1   
    84   81   82 2   
    85   81   93 1   
    86   83   84 1   
    87   83   85 1   
    88   83   88 1   
    89   84   90 1   
    90   84   91 1   
    91   84   92 1   
    92   85   89 1   
    93   93   94 1   
    94   93  101 1   
    95   94   95 1   
    96   94   97 1   
    97   94  102 1   
    98   95   96 2   
    99   95  112 1   
   100   97   98 1   
   101   97   99 1   
   102   97  103 1   
   103   98  100 1   
   104   98  104 1   
   105   98  105 1   
   106   99  106 1   
   107   99  107 1   
   108   99  108 1   
   109  100  109 1   
   110  100  110 1   
   111  100  111 1   
   112  112  113 1   
   113  112  119 1   
   114  113  114 1   
   115  113  116 1   
   116  113  120 1   
   117  114  115 2   
   118  114  126 1   
   119  116  117 1   
   120  116  118 1   
   121  116  121 1   
   122  117  123 1   
   123  117  124 1   
   124  117  125 1   
   125  118  122 1   
   126  126  127 1   
   127  126  133 1   
   128  127  128 1   
   129  127  130 1   
   130  127  134 1   
   131  128  129 2   
   132  128  140 1   
   133  130  131 1   
   134  130  132 1   
   135  130  135 1   
   136  131  137 1   
   137  131  138 1   
   138  131  139 1   
   139  132  136 1   
   140  140  141 1   
   141  140  149 1   
   142  141  142 1   
   143  141  144 1   
   144  141  150 1   
   145  142  143 2   
   146  142  162 1   
   147  144  145 1   
   148  144  151 1   
   149  144  152 1   
   150  145  146 1   
   151  145  153 1   
   152  145  154 1   
   153  146  147 1   
   154  146  155 1   
   155  146  156 1   
   156  147  148 1   
   157  147  157 1   
   158  147  158 1   
   159  148  159 1   
   160  148  160 1   
   161  148  161 1   
   162  162  163 1   
   163  162  171 1   
   164  163  164 1   
   165  163  166 1   
   166  163  172 1   
   167  164  165 2   
   168  164  177 1   
   169  166  167 1   
   170  166  173 1   
   171  166  174 1   
   172  167  168 1   
   173  167  175 1   
   174  167  176 1   
   175  168  169 1   
   176  168  170 1   
   177  177  178 1   
   178  177  182 1   
   179  178  179 1   
   180  178  180 1   
   181  178  181 1   
   182  184  185 1   
   183  184  186 1   
   184  187  188 1   
   185  187  189 1   
@<TRIPOS>SUBSTRUCTURE
     1 MOL         1 TEMP              0 ****  ****    0 ROOT
