@<TRIPOS>MOLECULE
MOL
  189   185     1     0     0
SMALL
resp


@<TRIPOS>ATOM
      1 C1          0.5560    2.6750    5.0030 c3        1 MOL     -0.387313
      2 C2         -0.1070    2.4800    3.5860 c         1 MOL      0.719902
      3 O1          0.4670    2.8380    2.5540 o         1 MOL     -0.581831
      4 H1         -0.0410    2.1610    5.7560 hc        1 MOL      0.109184
      5 H2          1.5640    2.2590    4.9930 hc        1 MOL      0.109184
      6 H3          0.6020    3.7380    5.2400 hc        1 MOL      0.109184
      7 N1         -1.3360    1.9720    3.4900 n         1 MOL     -0.625975
      8 C3         -2.0470    1.5930    2.2280 c3        1 MOL      0.332602
      9 C4         -2.6380    2.8980    1.6240 c         1 MOL      0.333736
     10 O2         -3.7800    3.2900    1.8170 o         1 MOL     -0.495238
     11 C5         -3.0850    0.5320    2.4730 c3        1 MOL     -0.060979
     12 C6         -3.9340    0.2260    1.2150 c         1 MOL      0.556224
     13 O3         -5.1710    0.0540    1.4080 o         1 MOL     -0.596042
     14 O4         -3.4200    0.2900    0.0670 o         1 MOL     -0.596042
     15 H4         -1.7390    1.6720    4.3630 hn        1 MOL      0.308755
     16 H5         -1.3340    1.2800    1.4570 h1        1 MOL     -0.035296
     17 H6         -3.7660    0.9530    3.2100 hc        1 MOL     -0.004944
     18 H7         -2.6360   -0.3750    2.8680 hc        1 MOL     -0.004944
     19 N2         -1.7970    3.7160    1.0020 n         1 MOL     -0.127988
     20 C7         -2.1180    5.0710    0.5150 c3        1 MOL     -0.319244
     21 C8         -2.9190    5.1350   -0.7800 c         1 MOL      0.561908
     22 O5         -3.5320    6.1520   -1.0780 o         1 MOL     -0.577729
     23 C9         -0.7570    5.8780    0.3570 c3        1 MOL      0.117573
     24 C10         0.0900    6.0590    1.5850 c3        1 MOL      0.151357
     25 C11        -0.5600    6.6800    2.7830 c3        1 MOL     -0.342690
     26 C12        -1.4720    7.8270    2.4760 c3        1 MOL      0.240663
     27 N3         -2.3310    8.1200    3.6450 n4        1 MOL     -0.386446
     28 H8         -0.8300    3.4990    1.1740 hn        1 MOL      0.214442
     29 H9         -2.6760    5.5510    1.3230 h1        1 MOL      0.120672
     30 H10        -1.0780    6.8860    0.0940 hc        1 MOL     -0.006935
     31 H11        -0.2190    5.5080   -0.5150 hc        1 MOL     -0.006935
     32 H12         0.8440    6.7340    1.1630 hc        1 MOL     -0.001456
     33 H13         0.5910    5.1430    1.9040 hc        1 MOL     -0.001456
     34 H14         0.1210    6.9100    3.6000 hc        1 MOL      0.080397
     35 H15        -1.1700    5.9010    3.2400 hc        1 MOL      0.080397
     36 H16        -2.1380    7.5770    1.6450 hx        1 MOL      0.038273
     37 H17        -1.0020    8.7910    2.2450 hx        1 MOL      0.038273
     38 H18        -1.7400    8.4370    4.3970 hn        1 MOL      0.327930
     39 H19        -3.1680    8.6370    3.4210 hn        1 MOL      0.327930
     40 H20        -2.6860    7.2400    4.0060 hn        1 MOL      0.327930
     41 N4         -2.9810    4.0770   -1.6320 n         1 MOL     -0.257319
     42 C13        -3.9520    4.0010   -2.7700 c3        1 MOL     -0.027311
     43 C14        -5.2840    3.3490   -2.4900 c         1 MOL      0.455128
     44 O6         -6.2160    3.6260   -3.2470 o         1 MOL     -0.519511
     45 C15        -3.1750    3.4070   -3.9650 c3        1 MOL     -0.335157
     46 C16        -2.3820    2.0970   -3.7050 c         1 MOL      0.841205
     47 O7         -2.5880    1.3890   -2.6660 o         1 MOL     -0.738826
     48 O8         -1.4630    1.8240   -4.5210 o         1 MOL     -0.738826
     49 H21        -2.4140    3.2730   -1.3880 hn        1 MOL      0.204492
     50 H22        -4.1280    5.0390   -3.0570 h1        1 MOL      0.116978
     51 H23        -2.5520    4.2640   -4.2230 hc        1 MOL      0.094906
     52 H24        -3.8180    3.2170   -4.8270 hc        1 MOL      0.094906
     53 N5         -5.3630    2.4460   -1.4650 n         1 MOL     -0.023828
     54 C17        -6.6180    2.0450   -0.8550 c3        1 MOL     -0.293891
     55 C18        -7.2390    0.8130   -1.3890 c         1 MOL      0.635768
     56 O9         -8.2670    0.8240   -2.1080 o         1 MOL     -0.582835
     57 H25        -4.5600    2.3330   -0.8730 hn        1 MOL      0.098695
     58 H26        -7.2880    2.8650   -1.1070 h1        1 MOL      0.107347
     59 H27        -6.5450    1.8650    0.2260 h1        1 MOL      0.107347
     60 N6         -6.5910   -0.2960   -1.0680 n         1 MOL     -0.375123
     61 C19        -7.0250   -1.6590   -1.4950 c3        1 MOL     -0.044371
     62 C20        -7.1970   -2.7180   -0.3790 c         1 MOL      0.385131
     63 O10        -7.6290   -3.8510   -0.6190 o         1 MOL     -0.547215
     64 C21        -6.0950   -2.1740   -2.6760 c3        1 MOL     -0.065741
     65 C22        -4.5880   -1.9140   -2.4350 c         1 MOL      0.687189
     66 O11        -4.0780   -2.3180   -1.3470 o         1 MOL     -0.696585
     67 O12        -3.8660   -1.4910   -3.3760 o         1 MOL     -0.696585
     68 H28        -5.7560   -0.2180   -0.5070 hn        1 MOL      0.095400
     69 H29        -8.0140   -1.5330   -1.9330 h1        1 MOL      0.120739
     70 H30        -6.3560   -1.6320   -3.5900 hc        1 MOL      0.047173
     71 H31        -6.4340   -3.1450   -3.0610 hc        1 MOL      0.047173
     72 N7         -6.8330   -2.4320    0.8290 n         1 MOL     -0.161027
     73 C23        -6.7150   -3.3590    1.9940 c3        1 MOL     -0.234724
     74 C24        -5.3340   -4.0300    2.0960 c         1 MOL      0.607601
     75 O13        -5.2550   -4.9460    2.9020 o         1 MOL     -0.589007
     76 H32        -6.5060   -1.4750    0.9220 hn        1 MOL      0.220635
     77 H33        -7.4330   -4.1660    1.9200 h1        1 MOL      0.118701
     78 H34        -6.7870   -2.7250    2.8790 h1        1 MOL      0.118701
     79 N8         -4.3260   -3.6490    1.3200 n         1 MOL     -0.374464
     80 C25        -3.0250   -4.3780    1.2060 c3        1 MOL     -0.153874
     81 C26        -1.8650   -3.4800    1.0260 c         1 MOL      0.610512
     82 O14        -1.8960   -2.4220    0.3830 o         1 MOL     -0.631978
     83 C27        -2.9760   -5.2800   -0.0740 c3        1 MOL      0.599282
     84 C28        -3.6930   -6.6110    0.3660 c3        1 MOL     -0.797529
     85 O15        -3.5660   -4.7110   -1.2110 oh        1 MOL     -0.693699
     86 H35        -4.5480   -2.9700    0.6080 hn        1 MOL      0.308802
     87 H36        -2.9390   -5.0000    2.0980 h1        1 MOL      0.111259
     88 H37        -1.9220   -5.5110   -0.2010 h1        1 MOL     -0.074588
     89 H38        -3.7630   -3.7770   -1.1930 ho        1 MOL      0.453569
     90 H39        -4.7760   -6.5560    0.4920 hc        1 MOL      0.204939
     91 H40        -3.6310   -7.2780   -0.4970 hc        1 MOL      0.204939
     92 H41        -3.3120   -6.9160    1.3400 hc        1 MOL      0.204939
     93 N9         -0.7720   -3.8510    1.7050 n         1 MOL     -0.511037
     94 C29         0.4720   -3.0590    1.8050 c3        1 MOL      0.035763
     95 C30         1.6410   -3.6680    1.1120 c         1 MOL      0.401934
     96 O16         1.9290   -4.8580    1.4380 o         1 MOL     -0.573605
     97 C31         0.7740   -2.8410    3.3420 c3        1 MOL      0.246115
     98 C32        -0.3950   -2.2750    4.2340 c3        1 MOL      0.311649
     99 C33         1.9910   -1.8550    3.5160 c3        1 MOL     -0.600927
    100 C34        -0.1740   -2.4100    5.7610 c3        1 MOL     -0.308909
    101 H42        -0.8840   -4.6800    2.2680 hn        1 MOL      0.269189
    102 H43         0.2260   -2.0660    1.4430 h1        1 MOL      0.058644
    103 H44         1.0910   -3.8180    3.7170 hc        1 MOL     -0.027904
    104 H45        -1.3040   -2.8540    4.0390 hc        1 MOL     -0.068966
    105 H46        -0.5570   -1.2200    4.0250 hc        1 MOL     -0.068966
    106 H47         1.6410   -0.8600    3.2550 hc        1 MOL      0.112689
    107 H48         2.3760   -1.8580    4.5310 hc        1 MOL      0.112689
    108 H49         2.7950   -2.0990    2.8260 hc        1 MOL      0.112689
    109 H50         0.6350   -1.7490    6.0480 hc        1 MOL      0.063730
    110 H51        -1.0820   -2.0310    6.2250 hc        1 MOL      0.063730
    111 H52         0.0390   -3.4590    5.9880 hc        1 MOL      0.063730
    112 N10         2.3610   -3.0220    0.2290 n         1 MOL     -0.012887
    113 C35         3.4090   -3.5500   -0.6480 c3        1 MOL     -0.086651
    114 C36         4.7540   -3.0530   -0.1630 c         1 MOL      0.384317
    115 O17         4.8820   -2.2080    0.7180 o         1 MOL     -0.399530
    116 C37         3.1360   -3.0060   -2.0730 c3        1 MOL      0.112459
    117 C38         1.8710   -3.4400   -2.7820 c3        1 MOL     -0.348224
    118 O18         3.1020   -1.5810   -1.9880 oh        1 MOL     -0.494208
    119 H53         2.0280   -2.0900    0.0350 hn        1 MOL      0.323220
    120 H54         3.3830   -4.6290   -0.5600 h1        1 MOL      0.087388
    121 H55         3.9700   -3.1190   -2.7570 h1        1 MOL      0.057655
    122 H56         2.2710   -1.3220   -1.5890 ho        1 MOL      0.256321
    123 H57         1.8820   -4.5030   -3.0050 hc        1 MOL      0.103583
    124 H58         1.0500   -3.2050   -2.0970 hc        1 MOL      0.103583
    125 H59         1.7560   -2.9060   -3.7280 hc        1 MOL      0.103583
    126 N11         5.8690   -3.3500   -0.8390 n         1 MOL     -0.250099
    127 C39         7.2860   -3.0380   -0.3580 c3        1 MOL     -0.117336
    128 C40         7.5760   -1.5290   -0.3240 c         1 MOL      0.468050
    129 O19         8.1600   -1.0610    0.6750 o         1 MOL     -0.528893
    130 C41         8.4130   -3.7900   -1.1900 c3        1 MOL      0.258214
    131 C42         8.7840   -5.0860   -0.5090 c3        1 MOL     -0.274452
    132 O20         7.9240   -4.0010   -2.5180 oh        1 MOL     -0.632310
    133 H60         5.7820   -3.9920   -1.6110 hn        1 MOL      0.246937
    134 H61         7.3780   -3.4240    0.6570 h1        1 MOL      0.138712
    135 H62         9.2110   -3.0830   -1.3850 h1        1 MOL      0.038952
    136 H63         8.7010   -4.1030   -3.0750 ho        1 MOL      0.409634
    137 H64         7.8860   -5.6730   -0.2900 hc        1 MOL      0.084816
    138 H65         9.4730   -5.7310   -1.0440 hc        1 MOL      0.084816
    139 H66         9.2970   -4.8550    0.4290 hc        1 MOL      0.084816
    140 N12         7.0240   -0.6960   -1.2210 n         1 MOL     -0.397085
    141 C43         7.1890    0.7400   -1.2250 c3        1 MOL      0.134079
    142 C44         6.2600    1.4550   -0.1870 c         1 MOL      0.345836
    143 O21         6.6200    2.5960    0.1970 o         1 MOL     -0.517951
    144 C45         7.0280    1.3380   -2.6890 c3        1 MOL     -0.315707
    145 C46         7.2530    2.8230   -2.6660 c3        1 MOL      0.405998
    146 C47         8.5240    3.3800   -2.1720 c3        1 MOL     -0.199426
    147 C48         8.6220    4.9420   -2.0340 c3        1 MOL      0.017850
    148 N13         8.3800    5.5500   -3.4110 n4        1 MOL     -0.527092
    149 H67         6.4890   -1.0820   -1.9870 hn        1 MOL      0.262410
    150 H68         8.1940    0.8760   -0.8230 h1        1 MOL      0.081633
    151 H69         6.0530    1.1490   -3.1270 hc        1 MOL      0.077793
    152 H70         7.8440    0.9790   -3.3190 hc        1 MOL      0.077793
    153 H71         6.3900    3.2560   -2.1380 hc        1 MOL     -0.076797
    154 H72         7.1560    3.1960   -3.6820 hc        1 MOL     -0.076797
    155 H73         9.2390    3.0000   -2.9020 hc        1 MOL      0.048029
    156 H74         8.6490    2.9980   -1.1560 hc        1 MOL      0.048029
    157 H75         9.6450    5.1080   -1.6720 hx        1 MOL      0.128070
    158 H76         8.0350    5.3420   -1.2160 hx        1 MOL      0.128070
    159 H77         8.8260    5.0530   -4.1730 hn        1 MOL      0.371750
    160 H78         7.3870    5.5450   -3.5880 hn        1 MOL      0.371750
    161 H79         8.8620    6.4370   -3.4560 hn        1 MOL      0.371750
    162 N14         5.1770    0.7780    0.2210 n         1 MOL     -0.028141
    163 C49         4.1900    1.2800    1.2210 c3        1 MOL     -0.227362
    164 C50         4.7100    1.1340    2.6140 c         1 MOL      0.504869
    165 O22         4.4180    1.9680    3.4470 o         1 MOL     -0.556028
    166 C51         2.8650    0.5790    0.9820 c3        1 MOL      0.288467
    167 C52         2.1520    0.9710   -0.3190 c3        1 MOL     -0.413620
    168 C53         0.8160    0.2660   -0.4750 c         1 MOL      0.863667
    169 O23         0.7220   -0.9640   -0.5880 o         1 MOL     -0.749590
    170 O24        -0.2080    0.9070   -0.6770 o         1 MOL     -0.749590
    171 H80         5.0810   -0.1780   -0.0860 hn        1 MOL      0.129232
    172 H81         4.0200    2.3620    1.1880 h1        1 MOL      0.110741
    173 H82         2.2130    0.8810    1.8090 hc        1 MOL     -0.020483
    174 H83         2.9810   -0.5080    0.9310 hc        1 MOL     -0.020483
    175 H84         2.7990    0.7070   -1.1630 hc        1 MOL      0.081186
    176 H85         1.9110    2.0380   -0.2480 hc        1 MOL      0.081186
    177 N15         5.4360    0.0450    2.8770 n         1 MOL     -0.138044
    178 C54         6.4080   -0.0140    3.9880 c3        1 MOL     -0.479952
    179 H86         5.9470   -0.4990    4.8470 h1        1 MOL      0.167030
    180 H87         7.2840   -0.5830    3.6750 h1        1 MOL      0.167030
    181 H88         6.7100    0.9970    4.2610 h1        1 MOL      0.167030
    182 H89         5.5390   -0.5910    2.0890 hn        1 MOL      0.198939
    183 Ca1        -1.7980   -0.8570   -1.7240 Ca        1 MOL      1.778635
    184 O25        -0.0990   -0.1770   -3.5350 oh        1 MOL     -0.882537
    185 H90         0.7670   -0.2910   -3.9290 ho        1 MOL      0.414797
    186 H91        -0.5360    0.4660   -4.0980 ho        1 MOL      0.414797
    187 O26        -1.2030   -3.3640   -3.1340 oh        1 MOL     -0.882537
    188 H92        -0.5180   -3.6020   -3.7620 ho        1 MOL      0.414797
    189 H93        -1.8070   -4.1030   -3.1630 ho        1 MOL      0.414797
@<TRIPOS>BOND
     1    1    2 1   
     2    1    4 1   
     3    1    5 1   
     4    1    6 1   
     5    2    3 2   
     6    2    7 1   
     7    7    8 1   
     8    7   15 1   
     9    8    9 1   
    10    8   11 1   
    11    8   16 1   
    12    9   10 2   
    13    9   19 1   
    14   11   12 1   
    15   11   17 1   
    16   11   18 1   
    17   12   13 1   
    18   12   14 1   
    19   19   20 1   
    20   19   28 1   
    21   20   21 1   
    22   20   23 1   
    23   20   29 1   
    24   21   22 2   
    25   21   41 1   
    26   23   24 1   
    27   23   30 1   
    28   23   31 1   
    29   24   25 1   
    30   24   32 1   
    31   24   33 1   
    32   25   26 1   
    33   25   34 1   
    34   25   35 1   
    35   26   27 1   
    36   26   36 1   
    37   26   37 1   
    38   27   38 1   
    39   27   39 1   
    40   27   40 1   
    41   41   42 1   
    42   41   49 1   
    43   42   43 1   
    44   42   45 1   
    45   42   50 1   
    46   43   44 2   
    47   43   53 1   
    48   45   46 1   
    49   45   51 1   
    50   45   52 1   
    51   46   47 1   
    52   46   48 1   
    53   53   54 1   
    54   53   57 1   
    55   54   55 1   
    56   54   58 1   
    57   54   59 1   
    58   55   56 2   
    59   55   60 1   
    60   60   61 1   
    61   60   68 1   
    62   61   62 1   
    63   61   64 1   
    64   61   69 1   
    65   62   63 2   
    66   62   72 1   
    67   64   65 1   
    68   64   70 1   
    69   64   71 1   
    70   65   66 1   
    71   65   67 1   
    72   72   73 1   
    73   72   76 1   
    74   73   74 1   
    75   73   77 1   
    76   73   78 1   
    77   74   75 2   
    78   74   79 1   
    79   79   80 1   
    80   79   86 1   
    81   80   81 1   
    82   80   83 1   
    83   80   87 1   
    84   81   82 2   
    85   81   93 1   
    86   83   84 1   
    87   83   85 1   
    88   83   88 1   
    89   84   90 1   
    90   84   91 1   
    91   84   92 1   
    92   85   89 1   
    93   93   94 1   
    94   93  101 1   
    95   94   95 1   
    96   94   97 1   
    97   94  102 1   
    98   95   96 2   
    99   95  112 1   
   100   97   98 1   
   101   97   99 1   
   102   97  103 1   
   103   98  100 1   
   104   98  104 1   
   105   98  105 1   
   106   99  106 1   
   107   99  107 1   
   108   99  108 1   
   109  100  109 1   
   110  100  110 1   
   111  100  111 1   
   112  112  113 1   
   113  112  119 1   
   114  113  114 1   
   115  113  116 1   
   116  113  120 1   
   117  114  115 2   
   118  114  126 1   
   119  116  117 1   
   120  116  118 1   
   121  116  121 1   
   122  117  123 1   
   123  117  124 1   
   124  117  125 1   
   125  118  122 1   
   126  126  127 1   
   127  126  133 1   
   128  127  128 1   
   129  127  130 1   
   130  127  134 1   
   131  128  129 2   
   132  128  140 1   
   133  130  131 1   
   134  130  132 1   
   135  130  135 1   
   136  131  137 1   
   137  131  138 1   
   138  131  139 1   
   139  132  136 1   
   140  140  141 1   
   141  140  149 1   
   142  141  142 1   
   143  141  144 1   
   144  141  150 1   
   145  142  143 2   
   146  142  162 1   
   147  144  145 1   
   148  144  151 1   
   149  144  152 1   
   150  145  146 1   
   151  145  153 1   
   152  145  154 1   
   153  146  147 1   
   154  146  155 1   
   155  146  156 1   
   156  147  148 1   
   157  147  157 1   
   158  147  158 1   
   159  148  159 1   
   160  148  160 1   
   161  148  161 1   
   162  162  163 1   
   163  162  171 1   
   164  163  164 1   
   165  163  166 1   
   166  163  172 1   
   167  164  165 2   
   168  164  177 1   
   169  166  167 1   
   170  166  173 1   
   171  166  174 1   
   172  167  168 1   
   173  167  175 1   
   174  167  176 1   
   175  168  169 1   
   176  168  170 1   
   177  177  178 1   
   178  177  182 1   
   179  178  179 1   
   180  178  180 1   
   181  178  181 1   
   182  184  185 1   
   183  184  186 1   
   184  187  188 1   
   185  187  189 1   
@<TRIPOS>SUBSTRUCTURE
     1 MOL         1 TEMP              0 ****  ****    0 ROOT
