@<TRIPOS>MOLECULE
MOL
  178   175     1     0     0
SMALL
resp


@<TRIPOS>ATOM
      1 C1         -0.4520    3.2280    5.6390 c3        1 MOL     -0.224802
      2 C2         -0.4760    2.8050    4.1570 c         1 MOL      0.773087
      3 O1          0.2090    3.3560    3.3570 o         1 MOL     -0.605611
      4 H1         -1.3500    3.8000    5.8680 hc        1 MOL      0.047547
      5 H2         -0.4170    2.3400    6.2700 hc        1 MOL      0.047547
      6 H3          0.4280    3.8420    5.8270 hc        1 MOL      0.047547
      7 N1         -1.4320    1.9300    3.7840 n         1 MOL     -0.570825
      8 C3         -1.8570    1.6470    2.4510 c3        1 MOL      0.099113
      9 C4         -2.4080    2.9020    1.8400 c         1 MOL      0.521135
     10 O2         -3.4760    3.3420    2.2460 o         1 MOL     -0.612705
     11 C5         -2.9060    0.4690    2.4800 c3        1 MOL     -0.132151
     12 C6         -3.4190    0.0980    1.0950 c         1 MOL      0.439646
     13 O3         -2.8790    0.5490    0.0170 o         1 MOL     -0.548553
     14 O4         -4.3830   -0.6540    1.0910 o         1 MOL     -0.548553
     15 H4         -2.0920    1.6490    4.5030 hn        1 MOL      0.276155
     16 H5         -1.0010    1.3200    1.8640 h1        1 MOL      0.041409
     17 H6         -3.7470    0.6690    3.1380 hc        1 MOL      0.061596
     18 H7         -2.4910   -0.4110    2.9630 hc        1 MOL      0.061596
     19 N2         -1.8040    3.5600    0.8690 n         1 MOL     -0.178300
     20 C7         -2.1740    4.8830    0.3910 c3        1 MOL      0.053959
     21 C8         -3.4340    4.8530   -0.4910 c         1 MOL      0.443229
     22 O5         -4.0800    5.9060   -0.5520 o         1 MOL     -0.570990
     23 C9         -0.9940    5.4080   -0.3900 c3        1 MOL     -0.188842
     24 H8         -1.0120    3.1330    0.4170 hn        1 MOL      0.242941
     25 H9         -2.3220    5.5620    1.2260 h1        1 MOL      0.074454
     26 H10        -0.0960    5.2270    0.2110 hc        1 MOL      0.058226
     27 H11        -0.7780    4.7920   -1.2670 hc        1 MOL      0.058226
     28 H12        -1.1280    6.4560   -0.6340 hc        1 MOL      0.058226
     29 N3         -3.8560    3.7410   -1.1030 n         1 MOL     -0.148116
     30 C10        -5.1560    3.6890   -1.7790 c3        1 MOL     -0.063000
     31 C11        -6.2540    3.1660   -0.8490 c         1 MOL      0.471469
     32 O6         -7.3840    3.5810   -1.0140 o         1 MOL     -0.542595
     33 C12        -5.0440    2.8600   -3.0980 c3        1 MOL     -0.062470
     34 C13        -4.3970    1.4340   -2.9500 c         1 MOL      0.610929
     35 O7         -3.1790    1.3010   -2.8600 o         1 MOL     -0.669208
     36 O8         -5.2380    0.4310   -2.9950 o         1 MOL     -0.669208
     37 H13        -3.3370    2.9090   -0.8680 hn        1 MOL      0.025939
     38 H14        -5.4780    4.6700   -2.1290 h1        1 MOL      0.106268
     39 H15        -4.4720    3.5030   -3.7610 hc        1 MOL      0.021734
     40 H16        -6.0200    2.8240   -3.5680 hc        1 MOL      0.021734
     41 N4         -5.8820    2.3740    0.1440 n         1 MOL     -0.066740
     42 C14        -6.8610    1.7950    1.1260 c3        1 MOL     -0.244459
     43 C15        -7.7800    0.6000    0.6360 c         1 MOL      0.536938
     44 O9         -8.9790    0.6270    0.6640 o         1 MOL     -0.512996
     45 H17        -4.9370    1.9990    0.1440 hn        1 MOL      0.111958
     46 H18        -7.4690    2.5970    1.5490 h1        1 MOL      0.108259
     47 H19        -6.1990    1.2790    1.8140 h1        1 MOL      0.108259
     48 N5         -7.0840   -0.4310    0.1980 n         1 MOL     -0.363751
     49 C16        -7.6360   -1.7680   -0.2490 c3        1 MOL     -0.033843
     50 C17        -6.8270   -2.9630    0.3240 c         1 MOL      0.547912
     51 O10        -6.3780   -3.9100   -0.3570 o         1 MOL     -0.532831
     52 C18        -7.8100   -1.8750   -1.7930 c3        1 MOL     -0.092158
     53 C19        -8.6480   -0.7470   -2.4090 c         1 MOL      0.681102
     54 N6         -8.0040    0.3090   -2.9290 n         1 MOL     -0.859745
     55 O11        -9.8720   -0.8350   -2.4050 o         1 MOL     -0.605302
     56 H20        -6.0820   -0.4320    0.3020 hn        1 MOL      0.234350
     57 H21        -8.6680   -1.8290    0.1200 h1        1 MOL      0.064219
     58 H22        -8.3120   -2.7910   -2.1190 hc        1 MOL      0.034860
     59 H23        -6.7910   -1.9440   -2.1570 hc        1 MOL      0.034860
     60 H24        -6.9990    0.3720   -2.8850 hn        1 MOL      0.380778
     61 H25        -8.5480    1.1570   -3.0640 hn        1 MOL      0.380778
     62 N7         -6.4140   -2.8020    1.5660 n         1 MOL     -0.445783
     63 C20        -5.9230   -3.8870    2.3890 c3        1 MOL     -0.072554
     64 C21        -4.4370   -4.2430    2.1280 c         1 MOL      0.530545
     65 O12        -4.0940   -5.3240    2.5820 o         1 MOL     -0.597472
     66 H26        -6.5170   -1.8600    1.9100 hn        1 MOL      0.270326
     67 H27        -6.5550   -4.7690    2.2220 h1        1 MOL      0.095374
     68 H28        -5.9500   -3.7020    3.4680 h1        1 MOL      0.095374
     69 N8         -3.6030   -3.5240    1.3420 n         1 MOL     -0.271334
     70 C22        -2.2640   -3.9970    0.9720 c3        1 MOL     -0.141782
     71 C23        -1.2590   -2.8430    0.9590 c         1 MOL      0.452234
     72 O13        -1.1960   -1.9500    0.1120 o         1 MOL     -0.589426
     73 C24        -2.2940   -4.7440   -0.4070 c3        1 MOL      0.323740
     74 C25        -0.8470   -5.1780   -0.8000 c3        1 MOL      0.037214
     75 O14        -2.9900   -5.9530   -0.2760 oh        1 MOL     -0.699213
     76 H29        -3.9000   -2.6240    0.9980 hn        1 MOL      0.187080
     77 H30        -2.0000   -4.6690    1.7870 h1        1 MOL      0.115174
     78 H31        -2.6780   -4.1870   -1.2670 h1        1 MOL      0.087106
     79 H32        -3.7440   -5.9450    0.3190 ho        1 MOL      0.443899
     80 H33        -0.2560   -4.2710   -0.7370 hc        1 MOL     -0.016234
     81 H34        -0.4390   -6.0020   -0.2150 hc        1 MOL     -0.016234
     82 H35        -0.8010   -5.5250   -1.8350 hc        1 MOL     -0.016234
     83 N9         -0.2630   -3.0110    1.8060 n         1 MOL     -0.429464
     84 C26         0.9300   -2.0860    1.8070 c3        1 MOL      0.039426
     85 C27         1.9580   -2.5300    0.7560 c         1 MOL      0.603838
     86 O15         2.3230   -3.6880    0.8210 o         1 MOL     -0.606861
     87 C28         1.5800   -2.0160    3.2270 c3        1 MOL      0.032019
     88 C29         0.4810   -1.6340    4.2760 c3        1 MOL      0.100776
     89 C30         2.6670   -0.9460    3.3850 c3        1 MOL     -0.189610
     90 C31         0.8220   -1.5220    5.7320 c3        1 MOL     -0.379558
     91 H36        -0.2620   -3.7750    2.4580 hn        1 MOL      0.277996
     92 H37         0.5180   -1.0950    1.6370 h1        1 MOL      0.170261
     93 H38         2.0440   -2.9860    3.4350 hc        1 MOL      0.001300
     94 H39        -0.3210   -2.3670    4.3560 hc        1 MOL     -0.007551
     95 H40        -0.0480   -0.7540    3.9040 hc        1 MOL     -0.007551
     96 H41         3.0800   -0.7900    4.3750 hc        1 MOL      0.032747
     97 H42         3.4710   -1.2210    2.7020 hc        1 MOL      0.032747
     98 H43         2.2210    0.0200    3.1410 hc        1 MOL      0.032747
     99 H44         1.0220   -2.5330    6.0900 hc        1 MOL      0.088577
    100 H45         1.7300   -0.9710    5.9960 hc        1 MOL      0.088577
    101 H46        -0.0060   -1.3360    6.4170 hc        1 MOL      0.088577
    102 N10         2.3120   -1.6560   -0.1530 n         1 MOL     -0.137929
    103 C32         3.4660   -1.8400   -1.0770 c3        1 MOL     -0.033215
    104 C33         4.7930   -1.3900   -0.4210 c         1 MOL      0.358124
    105 O16         4.8130   -0.6950    0.6260 o         1 MOL     -0.341710
    106 C34         3.2990   -1.1810   -2.4740 c3        1 MOL     -0.537230
    107 C35         1.9590   -1.6430   -2.9540 c         1 MOL      0.891218
    108 O17         1.9530   -2.4290   -3.9410 o         1 MOL     -0.729912
    109 O18         0.8860   -1.1590   -2.5550 o         1 MOL     -0.729912
    110 H47         1.7960   -0.7910   -0.2690 hn        1 MOL      0.173288
    111 H48         3.5040   -2.9050   -1.2850 h1        1 MOL      0.061738
    112 H49         4.1040   -1.5100   -3.1230 hc        1 MOL      0.155892
    113 H50         3.3500   -0.1060   -2.3250 hc        1 MOL      0.155892
    114 N11         5.9450   -1.7100   -1.0000 n         1 MOL     -0.418965
    115 C36         7.2040   -1.4000   -0.4580 c3        1 MOL      0.151257
    116 C37         7.4720    0.0990   -0.3830 c         1 MOL      0.370256
    117 O19         7.6990    0.6570    0.6930 o         1 MOL     -0.504079
    118 C38         8.3220   -2.2080   -1.2550 c3        1 MOL     -0.183809
    119 C39         9.7850   -1.8930   -0.8240 ca        1 MOL      0.044013
    120 C40        10.2990   -2.4260    0.3210 ca        1 MOL     -0.092433
    121 C41        10.6510   -1.0620   -1.6410 ca        1 MOL     -0.092433
    122 C42        11.6800   -2.2470    0.6830 ca        1 MOL     -0.164609
    123 C43        12.0400   -0.9440   -1.4060 ca        1 MOL     -0.164609
    124 C44        12.5160   -1.5350   -0.1890 ca        1 MOL     -0.090671
    125 H51         5.8680   -2.3660   -1.7690 hn        1 MOL      0.315321
    126 H52         7.3190   -1.7970    0.5470 h1        1 MOL      0.081609
    127 H53         8.1420   -2.0340   -2.3190 hc        1 MOL      0.064422
    128 H54         8.1740   -3.2780   -1.1360 hc        1 MOL      0.064422
    129 H55         9.7270   -3.0690    0.9840 ha        1 MOL      0.103268
    130 H56        10.2950   -0.5630   -2.5320 ha        1 MOL      0.103268
    131 H57        12.0980   -2.7240    1.5460 ha        1 MOL      0.129988
    132 H58        12.6400   -0.2750   -2.0020 ha        1 MOL      0.129988
    133 H59        13.5320   -1.3440    0.1150 ha        1 MOL      0.098491
    134 N12         7.1900    0.8510   -1.4600 n         1 MOL     -0.080434
    135 C45         7.2430    2.3180   -1.4590 c3        1 MOL     -0.017293
    136 C46         6.0870    3.0180   -0.6160 c         1 MOL      0.391078
    137 O20         6.2190    4.1900   -0.2300 o         1 MOL     -0.511509
    138 C47         7.2660    2.7000   -2.9040 c3        1 MOL     -0.213620
    139 C48         6.6900    1.5710   -3.7500 c3        1 MOL      0.033537
    140 C49         6.9900    0.3930   -2.8750 c3        1 MOL      0.005848
    141 H60         8.1770    2.5920   -0.9780 h1        1 MOL      0.095455
    142 H61         6.7660    3.6520   -3.1010 hc        1 MOL      0.078527
    143 H62         8.3130    2.8790   -3.1610 hc        1 MOL      0.078527
    144 H63         5.6260    1.6520   -3.9790 hc        1 MOL      0.033249
    145 H64         7.1150    1.5380   -4.7520 hc        1 MOL      0.033249
    146 H65         6.1190   -0.2570   -2.8660 h1        1 MOL      0.007670
    147 H66         7.7890   -0.1130   -3.4290 h1        1 MOL      0.007670
    148 N13         4.9760    2.3490   -0.2330 n         1 MOL     -0.204409
    149 C50         4.0410    2.7200    0.8520 c3        1 MOL      0.036702
    150 C51         4.5350    2.4870    2.2460 c         1 MOL      0.375174
    151 O21         4.5460    3.4140    3.1020 o         1 MOL     -0.555429
    152 C52         2.6420    2.1330    0.5990 c3        1 MOL      0.032556
    153 C53         1.9700    2.4770   -0.6980 c3        1 MOL     -0.076008
    154 C54         0.7620    1.6060   -0.9400 c         1 MOL      0.572136
    155 O22         0.4710    0.6770   -0.1710 o         1 MOL     -0.675265
    156 O23        -0.0590    1.9580   -1.8620 o         1 MOL     -0.675265
    157 H67         4.9270    1.3840   -0.5240 hn        1 MOL      0.185303
    158 H68         3.9110    3.7880    0.7370 h1        1 MOL      0.079725
    159 H69         1.9350    2.4460    1.3640 hc        1 MOL     -0.004213
    160 H70         2.7740    1.0500    0.5810 hc        1 MOL     -0.004213
    161 H71         2.6470    2.2590   -1.5240 hc        1 MOL      0.004388
    162 H72         1.7550    3.5410   -0.8050 hc        1 MOL      0.004388
    163 N14         5.2600    1.3950    2.4340 n         1 MOL      0.075335
    164 C55         6.0500    1.2180    3.6340 c3        1 MOL     -0.352916
    165 H73         6.5850    0.2690    3.5790 h1        1 MOL      0.111605
    166 H74         6.7680    2.0340    3.7220 h1        1 MOL      0.111605
    167 H75         5.3940    1.2150    4.5040 h1        1 MOL      0.111605
    168 H76         5.2700    0.6940    1.7150 hn        1 MOL      0.044707
    169 Ca1        -1.4220   -0.3190   -1.8110 Ca        1 MOL      1.725903
    170 O24        -4.1060   -1.5800   -1.3370 oh        1 MOL     -0.833545
    171 H77        -4.0920   -1.4650   -0.3840 ho        1 MOL      0.403884
    172 H78        -4.6540   -0.8670   -1.6650 ho        1 MOL      0.403884
    173 O25        -1.0860    0.1150   -4.4350 oh        1 MOL     -0.833545
    174 H79        -1.5920    0.8720   -4.7400 ho        1 MOL      0.403884
    175 H80        -0.9260   -0.4040   -5.2250 ho        1 MOL      0.403884
    176 O26        -1.1740   -2.8100   -2.8540 oh        1 MOL     -0.833545
    177 H81        -0.2280   -2.9740   -2.8850 ho        1 MOL      0.403884
    178 H82        -1.5560   -3.5400   -3.3390 ho        1 MOL      0.403884
@<TRIPOS>BOND
     1    1    2 1   
     2    1    4 1   
     3    1    5 1   
     4    1    6 1   
     5    2    3 2   
     6    2    7 1   
     7    7    8 1   
     8    7   15 1   
     9    8    9 1   
    10    8   11 1   
    11    8   16 1   
    12    9   10 2   
    13    9   19 1   
    14   11   12 1   
    15   11   17 1   
    16   11   18 1   
    17   12   13 1   
    18   12   14 1   
    19   19   20 1   
    20   19   24 1   
    21   20   21 1   
    22   20   23 1   
    23   20   25 1   
    24   21   22 2   
    25   21   29 1   
    26   23   26 1   
    27   23   27 1   
    28   23   28 1   
    29   29   30 1   
    30   29   37 1   
    31   30   31 1   
    32   30   33 1   
    33   30   38 1   
    34   31   32 2   
    35   31   41 1   
    36   33   34 1   
    37   33   39 1   
    38   33   40 1   
    39   34   35 1   
    40   34   36 1   
    41   41   42 1   
    42   41   45 1   
    43   42   43 1   
    44   42   46 1   
    45   42   47 1   
    46   43   44 2   
    47   43   48 1   
    48   48   49 1   
    49   48   56 1   
    50   49   50 1   
    51   49   52 1   
    52   49   57 1   
    53   50   51 2   
    54   50   62 1   
    55   52   53 1   
    56   52   58 1   
    57   52   59 1   
    58   53   54 1   
    59   53   55 2   
    60   54   60 1   
    61   54   61 1   
    62   62   63 1   
    63   62   66 1   
    64   63   64 1   
    65   63   67 1   
    66   63   68 1   
    67   64   65 2   
    68   64   69 1   
    69   69   70 1   
    70   69   76 1   
    71   70   71 1   
    72   70   73 1   
    73   70   77 1   
    74   71   72 2   
    75   71   83 1   
    76   73   74 1   
    77   73   75 1   
    78   73   78 1   
    79   74   80 1   
    80   74   81 1   
    81   74   82 1   
    82   75   79 1   
    83   83   84 1   
    84   83   91 1   
    85   84   85 1   
    86   84   87 1   
    87   84   92 1   
    88   85   86 2   
    89   85  102 1   
    90   87   88 1   
    91   87   89 1   
    92   87   93 1   
    93   88   90 1   
    94   88   94 1   
    95   88   95 1   
    96   89   96 1   
    97   89   97 1   
    98   89   98 1   
    99   90   99 1   
   100   90  100 1   
   101   90  101 1   
   102  102  103 1   
   103  102  110 1   
   104  103  104 1   
   105  103  106 1   
   106  103  111 1   
   107  104  105 2   
   108  104  114 1   
   109  106  107 1   
   110  106  112 1   
   111  106  113 1   
   112  107  108 1   
   113  107  109 1   
   114  114  115 1   
   115  114  125 1   
   116  115  116 1   
   117  115  118 1   
   118  115  126 1   
   119  116  117 2   
   120  116  134 1   
   121  118  119 1   
   122  118  127 1   
   123  118  128 1   
   124  119  120 ar  
   125  119  121 ar  
   126  120  122 ar  
   127  120  129 1   
   128  121  123 ar  
   129  121  130 1   
   130  122  124 ar  
   131  122  131 1   
   132  123  124 ar  
   133  123  132 1   
   134  124  133 1   
   135  134  135 1   
   136  134  140 1   
   137  135  136 1   
   138  135  138 1   
   139  135  141 1   
   140  136  137 2   
   141  136  148 1   
   142  138  139 1   
   143  138  142 1   
   144  138  143 1   
   145  139  140 1   
   146  139  144 1   
   147  139  145 1   
   148  140  146 1   
   149  140  147 1   
   150  148  149 1   
   151  148  157 1   
   152  149  150 1   
   153  149  152 1   
   154  149  158 1   
   155  150  151 2   
   156  150  163 1   
   157  152  153 1   
   158  152  159 1   
   159  152  160 1   
   160  153  154 1   
   161  153  161 1   
   162  153  162 1   
   163  154  155 1   
   164  154  156 1   
   165  163  164 1   
   166  163  168 1   
   167  164  165 1   
   168  164  166 1   
   169  164  167 1   
   170  170  171 1   
   171  170  172 1   
   172  173  174 1   
   173  173  175 1   
   174  176  177 1   
   175  176  178 1   
@<TRIPOS>SUBSTRUCTURE
     1 MOL         1 TEMP              0 ****  ****    0 ROOT
