@<TRIPOS>MOLECULE
MOL
  182   178     1     0     0
SMALL
resp


@<TRIPOS>ATOM
      1 C1          1.7760    2.1490    6.1510 c3        1 MOL     -0.211593
      2 C2          1.2740    2.0630    4.6790 c         1 MOL      0.743021
      3 O1          2.0320    2.2730    3.7490 o         1 MOL     -0.595058
      4 H1          0.9220    2.2430    6.8210 hc        1 MOL      0.048559
      5 H2          2.3340    1.2460    6.3980 hc        1 MOL      0.048559
      6 H3          2.4230    3.0190    6.2640 hc        1 MOL      0.048559
      7 N1         -0.0640    1.9580    4.5030 n         1 MOL     -0.641590
      8 C3         -0.6010    1.8260    3.1290 c3        1 MOL      0.019043
      9 C4         -0.4880    3.2170    2.4170 c         1 MOL      0.770953
     10 O2         -1.1170    4.1370    2.8310 o         1 MOL     -0.587777
     11 C5         -1.9620    1.2350    3.1320 c3        1 MOL     -0.161733
     12 C6         -2.7640    1.1000    1.8460 c         1 MOL      0.701337
     13 O3         -3.9470    0.8550    2.0530 o         1 MOL     -0.690896
     14 O4         -2.2000    1.4150    0.7770 o         1 MOL     -0.690896
     15 H4         -0.7190    1.8880    5.2680 hn        1 MOL      0.352094
     16 H5         -0.0100    1.0720    2.6120 h1        1 MOL      0.032467
     17 H6         -2.5370    1.7530    3.8910 hc        1 MOL      0.043049
     18 H7         -1.8290    0.2290    3.5270 hc        1 MOL      0.043049
     19 N2          0.1950    3.2900    1.2470 n         1 MOL     -0.487697
     20 C7          0.5300    4.6170    0.6240 c3        1 MOL     -0.019701
     21 C8         -0.6590    5.3510   -0.0300 c         1 MOL      0.404712
     22 O5         -0.6280    6.6120   -0.0090 o         1 MOL     -0.574480
     23 C9          1.8390    4.5240   -0.2090 c3        1 MOL      0.087204
     24 C10         2.4960    5.8780   -0.5020 c3        1 MOL      0.039246
     25 C11         3.9280    6.0170   -0.7650 c3        1 MOL      0.059794
     26 C12         4.4710    7.3670   -0.9830 c3        1 MOL     -0.179186
     27 N3          3.8210    7.9510   -2.1850 n4        1 MOL     -0.338175
     28 H8          0.4450    2.3970    0.8580 hn        1 MOL      0.229543
     29 H9          0.9070    5.1980    1.4670 h1        1 MOL      0.097528
     30 H10         1.7310    4.0020   -1.1570 hc        1 MOL      0.007270
     31 H11         2.5800    4.0030    0.3950 hc        1 MOL      0.007270
     32 H12         2.3060    6.4910    0.3780 hc        1 MOL     -0.009539
     33 H13         2.0030    6.3550   -1.3370 hc        1 MOL     -0.009539
     34 H14         4.2440    5.4100   -1.6110 hc        1 MOL      0.022917
     35 H15         4.4470    5.5300    0.0600 hc        1 MOL      0.022917
     36 H16         5.5540    7.3330   -1.1610 hx        1 MOL      0.161794
     37 H17         4.3200    8.0910   -0.1890 hx        1 MOL      0.161794
     38 H18         4.5040    8.5420   -2.6380 hn        1 MOL      0.321464
     39 H19         3.6430    7.2030   -2.8280 hn        1 MOL      0.321464
     40 H20         3.0000    8.5040   -1.9920 hn        1 MOL      0.321464
     41 N4         -1.5230    4.6380   -0.6720 n         1 MOL     -0.357957
     42 C13        -2.7520    5.2540   -1.1790 c3        1 MOL      0.176865
     43 C14        -4.0170    5.0390   -0.3860 c         1 MOL      0.405260
     44 O6         -4.9880    5.7760   -0.6700 o         1 MOL     -0.554531
     45 C15        -2.9940    4.7860   -2.6450 c3        1 MOL     -0.407913
     46 C16        -2.9930    3.2360   -2.8400 c         1 MOL      0.838586
     47 O7         -2.9150    2.7900   -3.9980 o         1 MOL     -0.745096
     48 O8         -3.0350    2.4460   -1.8720 o         1 MOL     -0.745096
     49 H21        -1.3970    3.6580   -0.4950 hn        1 MOL      0.354964
     50 H22        -2.6910    6.3420   -1.2190 h1        1 MOL      0.080814
     51 H23        -2.1700    5.1890   -3.2250 hc        1 MOL      0.095883
     52 H24        -3.9480    5.2660   -2.8770 hc        1 MOL      0.095883
     53 N5         -4.0010    4.1170    0.5530 n         1 MOL     -0.130404
     54 C17        -5.0760    3.7580    1.4350 c3        1 MOL     -0.229700
     55 C18        -5.9400    2.5630    0.9160 c         1 MOL      0.601765
     56 O9         -6.9170    2.2620    1.6060 o         1 MOL     -0.580996
     57 H25        -3.1660    3.5420    0.5290 hn        1 MOL      0.150912
     58 H26        -5.6790    4.6360    1.6200 h1        1 MOL      0.126853
     59 H27        -4.6380    3.4090    2.3720 h1        1 MOL      0.126853
     60 N6         -5.5950    1.8440   -0.1660 n         1 MOL     -0.319241
     61 C19        -6.3880    0.8560   -0.8830 c3        1 MOL     -0.072566
     62 C20        -6.6920   -0.4680   -0.1360 c         1 MOL      0.261639
     63 O10        -7.4320   -1.3250   -0.6040 o         1 MOL     -0.462542
     64 C21        -5.7830    0.7170   -2.2910 c3        1 MOL     -0.167077
     65 C22        -4.6320   -0.1770   -2.4690 c         1 MOL      0.505336
     66 N7         -4.6170   -1.0390   -3.4880 n         1 MOL     -0.665530
     67 O11        -3.8330   -0.2750   -1.5860 o         1 MOL     -0.239445
     68 H28        -4.6250    1.9830   -0.4020 hn        1 MOL      0.180035
     69 H29        -7.3470    1.3550   -1.0670 h1        1 MOL      0.135578
     70 H30        -5.5080    1.7480   -2.5190 hc        1 MOL      0.083048
     71 H31        -6.5190    0.4760   -3.0620 hc        1 MOL      0.083048
     72 H32        -5.2650   -0.9420   -4.2550 hn        1 MOL      0.331248
     73 H33        -3.8020   -1.6170   -3.6100 hn        1 MOL      0.331248
     74 N8         -6.0790   -0.6220    1.0180 n         1 MOL     -0.065802
     75 C23        -6.1940   -1.8170    1.8090 c3        1 MOL     -0.410366
     76 C24        -4.9930   -2.7430    1.7340 c         1 MOL      0.751532
     77 O12        -5.0680   -3.8040    2.3100 o         1 MOL     -0.582657
     78 H34        -5.6070    0.1990    1.3780 hn        1 MOL      0.315284
     79 H35        -7.0770   -2.3970    1.5350 h1        1 MOL      0.171305
     80 H36        -6.3450   -1.6080    2.8650 h1        1 MOL      0.171305
     81 N9         -3.9640   -2.4550    0.9260 n         1 MOL     -0.710698
     82 C25        -2.9620   -3.4360    0.5270 c3        1 MOL      0.388783
     83 C26        -1.5820   -2.8150    0.5010 c         1 MOL      0.680881
     84 O13        -1.4530   -1.6470    0.1060 o         1 MOL     -0.660045
     85 C27        -3.2630   -4.1690   -0.7290 c3        1 MOL      0.057825
     86 C28        -4.5760   -4.9800   -0.6480 ca        1 MOL     -0.099311
     87 C29        -5.7630   -4.3350   -1.0050 ca        1 MOL     -0.075513
     88 C30        -4.5440   -6.3160   -0.1840 ca        1 MOL     -0.075513
     89 C31        -6.9740   -5.0380   -0.9890 ca        1 MOL     -0.315678
     90 C32        -5.8010   -7.0830   -0.1940 ca        1 MOL     -0.315678
     91 C33        -7.0030   -6.4110   -0.5460 ca        1 MOL      0.379355
     92 O14        -8.1890   -6.9450   -0.3920 oh        1 MOL     -0.436899
     93 H37        -3.9720   -1.5360    0.5220 hn        1 MOL      0.255434
     94 H38        -2.9470   -4.2420    1.2600 h1        1 MOL     -0.024611
     95 H39        -2.4430   -4.8580   -0.9410 hc        1 MOL     -0.030775
     96 H40        -3.3750   -3.4380   -1.5200 hc        1 MOL     -0.030775
     97 H41        -5.7080   -3.3750   -1.4950 ha        1 MOL      0.106231
     98 H42        -3.6210   -6.7380    0.1950 ha        1 MOL      0.106231
     99 H43        -7.8930   -4.4990   -1.1590 ha        1 MOL      0.149104
    100 H44        -5.7320   -8.1050    0.1200 ha        1 MOL      0.149104
    101 H45        -8.1000   -7.8440   -0.0570 ho        1 MOL      0.339840
    102 N10        -0.5640   -3.5880    0.9480 n         1 MOL     -0.685084
    103 C34         0.8070   -3.0290    1.1540 c3        1 MOL     -0.114288
    104 C35         1.8210   -3.9480    0.3700 c         1 MOL      0.723535
    105 O15         1.7720   -5.1440    0.5450 o         1 MOL     -0.554876
    106 C36         1.2630   -2.9140    2.6440 c3        1 MOL      0.141400
    107 C37         0.3850   -2.0430    3.5660 c3        1 MOL      0.034834
    108 C38         2.6430   -2.3100    2.6860 c3        1 MOL     -0.374781
    109 C39         0.6890   -2.3610    5.0480 c3        1 MOL     -0.267983
    110 H46        -0.7140   -4.5200    1.3000 hn        1 MOL      0.356641
    111 H47         0.7540   -2.0300    0.7280 h1        1 MOL      0.166268
    112 H48         1.3830   -3.9230    3.0370 hc        1 MOL      0.035712
    113 H49        -0.6870   -2.1370    3.4160 hc        1 MOL      0.032942
    114 H50         0.5810   -0.9880    3.3830 hc        1 MOL      0.032942
    115 H51         3.1000   -2.4010    3.6640 hc        1 MOL      0.076956
    116 H52         3.3330   -2.8950    2.0820 hc        1 MOL      0.076956
    117 H53         2.6530   -1.2560    2.3790 hc        1 MOL      0.076956
    118 H54         1.7100   -2.0370    5.2210 hc        1 MOL      0.067727
    119 H55         0.0460   -1.8760    5.7810 hc        1 MOL      0.067727
    120 H56         0.6660   -3.4490    5.2180 hc        1 MOL      0.067727
    121 N11         2.6730   -3.3650   -0.5120 n         1 MOL     -0.552641
    122 C40         3.8640   -3.9740   -1.1670 c3        1 MOL      0.165015
    123 C41         5.2080   -3.6230   -0.5820 c         1 MOL      0.499022
    124 O16         5.3270   -2.6240    0.0940 o         1 MOL     -0.441301
    125 C42         3.9050   -3.7020   -2.6150 c3        1 MOL     -0.143726
    126 O17         4.2790   -2.3660   -2.9120 oh        1 MOL     -0.467978
    127 H57         2.6250   -2.3590   -0.6220 hn        1 MOL      0.345244
    128 H58         3.7080   -5.0240   -0.9160 h1        1 MOL      0.032950
    129 H59         2.9340   -3.9200   -3.0680 h1        1 MOL      0.093636
    130 H60         4.6980   -4.3830   -2.9470 h1        1 MOL      0.093636
    131 H61         3.5500   -1.8420   -3.2770 ho        1 MOL      0.388825
    132 N12         6.2510   -4.4370   -0.8480 n         1 MOL     -0.480129
    133 C43         7.6760   -4.1880   -0.3830 c3        1 MOL      0.055362
    134 C44         8.2200   -2.8270   -0.7610 c         1 MOL      0.488152
    135 O18         9.1710   -2.2600   -0.1650 o         1 MOL     -0.513101
    136 C45         8.5240   -5.3860   -0.7320 c3        1 MOL     -0.420862
    137 H62         6.0690   -5.2930   -1.3510 hn        1 MOL      0.303966
    138 H63         7.6130   -4.1810    0.7030 h1        1 MOL      0.124248
    139 H64         8.5430   -5.4520   -1.8230 hc        1 MOL      0.136204
    140 H65         9.5080   -5.2480   -0.2910 hc        1 MOL      0.136204
    141 H66         8.1010   -6.2860   -0.2900 hc        1 MOL      0.136204
    142 N13         7.6230   -2.1960   -1.7720 n         1 MOL     -0.380664
    143 C46         7.8850   -0.7980   -2.1480 c3        1 MOL      0.089769
    144 C47         7.2520    0.1950   -1.2320 c         1 MOL      0.341965
    145 O19         7.8810    1.1690   -0.7090 o         1 MOL     -0.499529
    146 C48         7.2860   -0.7470   -3.5470 c3        1 MOL     -0.259862
    147 H67         6.9480   -2.7130   -2.3260 hn        1 MOL      0.300559
    148 H68         8.9320   -0.4970   -2.1440 h1        1 MOL      0.099692
    149 H69         7.6180   -1.5430   -4.2130 hc        1 MOL      0.063171
    150 H70         6.2420   -1.0140   -3.5220 hc        1 MOL      0.063171
    151 H71         7.3450    0.2160   -4.0620 hc        1 MOL      0.063171
    152 N14         5.9960   -0.0080   -0.8690 n         1 MOL     -0.084944
    153 C49         5.4310    0.8580    0.2200 c3        1 MOL     -0.186039
    154 C50         6.1210    0.6710    1.5800 c         1 MOL      0.425352
    155 O20         6.2740    1.6930    2.3250 o         1 MOL     -0.519582
    156 C51         3.9370    0.5500    0.2990 c3        1 MOL      0.183737
    157 C52         3.2030    1.0560   -0.9440 c3        1 MOL      0.038614
    158 C53         1.7640    0.5870   -0.9130 c         1 MOL      0.722463
    159 O21         0.8710    1.0860   -0.2500 o         1 MOL     -0.787492
    160 O22         1.4400   -0.3430   -1.7000 o         1 MOL     -0.787492
    161 H72         5.4580   -0.7310   -1.3260 hn        1 MOL      0.141295
    162 H73         5.5780    1.8950   -0.0500 h1        1 MOL      0.119697
    163 H74         3.4760    0.9610    1.1980 hc        1 MOL      0.014665
    164 H75         3.8030   -0.5370    0.2460 hc        1 MOL      0.014665
    165 H76         3.7210    0.7800   -1.8530 hc        1 MOL     -0.084385
    166 H77         3.2680    2.1440   -0.9710 hc        1 MOL     -0.084385
    167 N15         6.6780   -0.5340    1.9280 n         1 MOL     -0.088300
    168 C54         7.4930   -0.7820    3.1110 c3        1 MOL     -0.350982
    169 H78         6.8530   -0.8080    3.9940 h1        1 MOL      0.136101
    170 H79         8.0050   -1.7380    3.0060 h1        1 MOL      0.136101
    171 H80         8.2290    0.0150    3.2200 h1        1 MOL      0.136101
    172 H81         6.4640   -1.2720    1.2690 hn        1 MOL      0.123023
    173 Ca1        -1.2530    0.4210   -1.4970 Ca        1 MOL      1.764482
    174 O23        -2.0650    0.2750   -4.2210 oh        1 MOL     -0.932681
    175 H82        -2.4430    1.1500   -4.1910 ho        1 MOL      0.433139
    176 H83        -1.5060    0.2850   -4.9920 ho        1 MOL      0.433139
    177 O24         0.2040    2.4040   -2.7370 oh        1 MOL     -0.932681
    178 H84         1.1350    2.5760   -2.6010 ho        1 MOL      0.433139
    179 H85        -0.0500    2.9970   -3.4470 ho        1 MOL      0.433139
    180 O25        -1.2500   -2.0350   -2.8780 oh        1 MOL     -0.932681
    181 H86        -0.7040   -2.8150   -2.8160 ho        1 MOL      0.433139
    182 H87        -1.4550   -1.9550   -3.8100 ho        1 MOL      0.433139
@<TRIPOS>BOND
     1    1    2 1   
     2    1    4 1   
     3    1    5 1   
     4    1    6 1   
     5    2    3 2   
     6    2    7 1   
     7    7    8 1   
     8    7   15 1   
     9    8    9 1   
    10    8   11 1   
    11    8   16 1   
    12    9   10 2   
    13    9   19 1   
    14   11   12 1   
    15   11   17 1   
    16   11   18 1   
    17   12   13 1   
    18   12   14 1   
    19   19   20 1   
    20   19   28 1   
    21   20   21 1   
    22   20   23 1   
    23   20   29 1   
    24   21   22 2   
    25   21   41 1   
    26   23   24 1   
    27   23   30 1   
    28   23   31 1   
    29   24   25 1   
    30   24   32 1   
    31   24   33 1   
    32   25   26 1   
    33   25   34 1   
    34   25   35 1   
    35   26   27 1   
    36   26   36 1   
    37   26   37 1   
    38   27   38 1   
    39   27   39 1   
    40   27   40 1   
    41   41   42 1   
    42   41   49 1   
    43   42   43 1   
    44   42   45 1   
    45   42   50 1   
    46   43   44 2   
    47   43   53 1   
    48   45   46 1   
    49   45   51 1   
    50   45   52 1   
    51   46   47 1   
    52   46   48 1   
    53   53   54 1   
    54   53   57 1   
    55   54   55 1   
    56   54   58 1   
    57   54   59 1   
    58   55   56 2   
    59   55   60 1   
    60   60   61 1   
    61   60   68 1   
    62   61   62 1   
    63   61   64 1   
    64   61   69 1   
    65   62   63 2   
    66   62   74 1   
    67   64   65 1   
    68   64   70 1   
    69   64   71 1   
    70   65   66 1   
    71   65   67 2   
    72   66   72 1   
    73   66   73 1   
    74   74   75 1   
    75   74   78 1   
    76   75   76 1   
    77   75   79 1   
    78   75   80 1   
    79   76   77 2   
    80   76   81 1   
    81   81   82 1   
    82   81   93 1   
    83   82   83 1   
    84   82   85 1   
    85   82   94 1   
    86   83   84 2   
    87   83  102 1   
    88   85   86 1   
    89   85   95 1   
    90   85   96 1   
    91   86   87 ar  
    92   86   88 ar  
    93   87   89 ar  
    94   87   97 1   
    95   88   90 ar  
    96   88   98 1   
    97   89   91 ar  
    98   89   99 1   
    99   90   91 ar  
   100   90  100 1   
   101   91   92 1   
   102   92  101 1   
   103  102  103 1   
   104  102  110 1   
   105  103  104 1   
   106  103  106 1   
   107  103  111 1   
   108  104  105 2   
   109  104  121 1   
   110  106  107 1   
   111  106  108 1   
   112  106  112 1   
   113  107  109 1   
   114  107  113 1   
   115  107  114 1   
   116  108  115 1   
   117  108  116 1   
   118  108  117 1   
   119  109  118 1   
   120  109  119 1   
   121  109  120 1   
   122  121  122 1   
   123  121  127 1   
   124  122  123 1   
   125  122  125 1   
   126  122  128 1   
   127  123  124 2   
   128  123  132 1   
   129  125  126 1   
   130  125  129 1   
   131  125  130 1   
   132  126  131 1   
   133  132  133 1   
   134  132  137 1   
   135  133  134 1   
   136  133  136 1   
   137  133  138 1   
   138  134  135 2   
   139  134  142 1   
   140  136  139 1   
   141  136  140 1   
   142  136  141 1   
   143  142  143 1   
   144  142  147 1   
   145  143  144 1   
   146  143  146 1   
   147  143  148 1   
   148  144  145 2   
   149  144  152 1   
   150  146  149 1   
   151  146  150 1   
   152  146  151 1   
   153  152  153 1   
   154  152  161 1   
   155  153  154 1   
   156  153  156 1   
   157  153  162 1   
   158  154  155 2   
   159  154  167 1   
   160  156  157 1   
   161  156  163 1   
   162  156  164 1   
   163  157  158 1   
   164  157  165 1   
   165  157  166 1   
   166  158  159 1   
   167  158  160 1   
   168  167  168 1   
   169  167  172 1   
   170  168  169 1   
   171  168  170 1   
   172  168  171 1   
   173  174  175 1   
   174  174  176 1   
   175  177  178 1   
   176  177  179 1   
   177  180  181 1   
   178  180  182 1   
@<TRIPOS>SUBSTRUCTURE
     1 MOL         1 TEMP              0 ****  ****    0 ROOT
