@<TRIPOS>MOLECULE
MOL
  175   173     1     0     0
SMALL
resp


@<TRIPOS>ATOM
      1 C1          0.6880    3.9860    5.7910 c3        1 MOL     -0.448574
      2 C2          0.0510    4.0030    4.3700 c         1 MOL      0.725899
      3 O1          0.7480    4.2300    3.4120 o         1 MOL     -0.540919
      4 H1          1.5680    3.3430    5.7870 hc        1 MOL      0.110553
      5 H2          0.9800    4.9980    6.0720 hc        1 MOL      0.110553
      6 H3         -0.0370    3.6040    6.5100 hc        1 MOL      0.110553
      7 N1         -1.2100    3.6380    4.1320 n         1 MOL     -0.624537
      8 C3         -1.9420    3.4360    2.8340 c3        1 MOL      0.094496
      9 C4         -1.9370    4.5730    1.8720 c         1 MOL      0.588279
     10 O2         -2.0360    5.7100    2.3580 o         1 MOL     -0.587092
     11 C5         -3.4500    3.0320    3.0400 c3        1 MOL     -0.278632
     12 C6         -4.1170    2.4540    1.8060 c         1 MOL      0.639131
     13 O3         -3.4390    2.0210    0.8190 o         1 MOL     -0.621544
     14 O4         -5.3740    2.4250    1.8400 o         1 MOL     -0.621544
     15 H4         -1.7620    3.4290    4.9490 hn        1 MOL      0.311666
     16 H5         -1.4210    2.6710    2.2620 h1        1 MOL      0.121780
     17 H6         -4.0280    3.9090    3.3320 hc        1 MOL      0.070051
     18 H7         -3.4840    2.3870    3.9160 hc        1 MOL      0.070051
     19 N2         -1.7460    4.4360    0.5500 n         1 MOL     -0.538608
     20 C7         -2.0090    5.4960   -0.3930 c3        1 MOL      0.467983
     21 C8         -3.1340    5.0560   -1.3940 c         1 MOL      0.335620
     22 O5         -3.4090    5.9310   -2.1930 o         1 MOL     -0.555300
     23 C9         -0.7860    5.8030   -1.1740 c3        1 MOL     -0.252752
     24 H8         -1.5260    3.5220    0.1720 hn        1 MOL      0.286528
     25 H9         -2.3030    6.4110    0.1170 h1        1 MOL     -0.026803
     26 H10        -0.5160    4.9140   -1.7420 hc        1 MOL      0.056794
     27 H11        -1.0250    6.5350   -1.9570 hc        1 MOL      0.056794
     28 H12         0.0260    6.2040   -0.5630 hc        1 MOL      0.056794
     29 N3         -3.7940    3.8620   -1.3470 n         1 MOL     -0.319100
     30 C10        -4.7110    3.5090   -2.4650 c3        1 MOL      0.128237
     31 C11        -6.0370    2.6720   -2.2110 c         1 MOL      0.330394
     32 O6         -6.8060    2.5510   -3.1500 o         1 MOL     -0.522591
     33 C12        -3.8970    2.7910   -3.6310 c3        1 MOL     -0.074313
     34 C13        -3.1470    1.5000   -3.2110 c         1 MOL      0.708439
     35 O7         -3.0920    1.1220   -2.0410 o         1 MOL     -0.720490
     36 O8         -2.3790    0.9420   -4.0500 o         1 MOL     -0.720490
     37 H13        -3.7240    3.2410   -0.5610 hn        1 MOL      0.175336
     38 H14        -5.1170    4.3930   -2.9590 h1        1 MOL      0.055898
     39 H15        -3.1680    3.4730   -4.0770 hc        1 MOL      0.013589
     40 H16        -4.5690    2.6580   -4.4730 hc        1 MOL      0.013589
     41 N4         -6.3170    2.2110   -1.0120 n         1 MOL     -0.155521
     42 C14        -7.6110    1.5140   -0.6960 c3        1 MOL     -0.312759
     43 C15        -7.6140    0.0320   -1.1210 c         1 MOL      0.497193
     44 O9         -8.6170   -0.6220   -0.9280 o         1 MOL     -0.584918
     45 H17        -5.6820    2.4120   -0.2540 hn        1 MOL      0.164584
     46 H18        -8.4820    1.9820   -1.1580 h1        1 MOL      0.151155
     47 H19        -7.7270    1.5550    0.3950 h1        1 MOL      0.151155
     48 N5         -6.5520   -0.4910   -1.6420 n         1 MOL     -0.127510
     49 C16        -6.5020   -1.9060   -2.0730 c3        1 MOL     -0.160692
     50 C17        -6.5650   -3.0290   -1.0180 c         1 MOL      0.424668
     51 O10        -6.8890   -4.1820   -1.3760 o         1 MOL     -0.548549
     52 C18        -5.2910   -2.1280   -2.9810 c3        1 MOL      0.026514
     53 C19        -3.9570   -2.0110   -2.2960 c         1 MOL      0.421924
     54 N6         -2.8880   -2.1960   -3.0080 n         1 MOL     -0.656118
     55 O11        -3.8230   -1.7880   -1.0930 o         1 MOL     -0.499952
     56 H20        -5.6810    0.0070   -1.7560 hn        1 MOL      0.144992
     57 H21        -7.3680   -1.9730   -2.7430 h1        1 MOL      0.117504
     58 H22        -5.2800   -1.4630   -3.8460 hc        1 MOL      0.037236
     59 H23        -5.4720   -3.0380   -3.5420 hc        1 MOL      0.037236
     60 H24        -2.9800   -2.0440   -3.9960 hn        1 MOL      0.344589
     61 H25        -1.9560   -1.9880   -2.6670 hn        1 MOL      0.344589
     62 N7         -6.2460   -2.6890    0.2120 n         1 MOL     -0.071104
     63 C20        -6.2690   -3.5680    1.3980 c3        1 MOL     -0.389143
     64 C21        -4.9790   -4.3280    1.6540 c         1 MOL      0.703639
     65 O12        -4.9770   -5.0800    2.6410 o         1 MOL     -0.623626
     66 H26        -5.9470   -1.7410    0.3910 hn        1 MOL      0.159577
     67 H27        -7.0810   -4.2730    1.2510 h1        1 MOL      0.143924
     68 H28        -6.4980   -2.9040    2.2360 h1        1 MOL      0.143924
     69 N8         -3.9090   -4.0570    0.9230 n         1 MOL     -0.438024
     70 C22        -2.5100   -4.5480    1.2210 c3        1 MOL     -0.049704
     71 C23        -1.5220   -3.4960    1.4760 c         1 MOL      0.642676
     72 O13        -1.8010   -2.3830    1.1710 o         1 MOL     -0.603780
     73 C24        -2.0110   -5.4450    0.1060 c3        1 MOL      0.518845
     74 C25        -2.4580   -6.9320    0.2620 c3        1 MOL     -0.322852
     75 O14        -2.2990   -5.0550   -1.2590 oh        1 MOL     -0.629060
     76 H29        -3.9530   -3.2530    0.3140 hn        1 MOL      0.320228
     77 H30        -2.4370   -5.1790    2.1170 h1        1 MOL      0.052936
     78 H31        -0.9230   -5.4840    0.1190 h1        1 MOL     -0.030782
     79 H32        -1.6930   -4.3860   -1.6030 ho        1 MOL      0.370693
     80 H33        -3.5160   -6.9380    0.5140 hc        1 MOL      0.069150
     81 H34        -2.1620   -7.4700   -0.6370 hc        1 MOL      0.069150
     82 H35        -1.9660   -7.3280    1.1400 hc        1 MOL      0.069150
     83 N9         -0.3390   -3.9250    1.9750 n         1 MOL     -0.586782
     84 C26         0.8660   -3.0150    2.0220 c3        1 MOL     -0.111982
     85 C27         1.6260   -3.2120    0.6830 c         1 MOL      0.581318
     86 O15         1.9770   -4.3360    0.3740 o         1 MOL     -0.582111
     87 C28         1.8160   -3.4340    3.1400 c3        1 MOL      0.203636
     88 C29         1.2770   -3.3030    4.5690 c3        1 MOL      0.048081
     89 C30         3.0790   -2.6320    2.9850 c3        1 MOL     -0.222616
     90 C31         2.0070   -4.1710    5.5200 c3        1 MOL     -0.018834
     91 H36        -0.2280   -4.8160    2.4450 hn        1 MOL      0.311633
     92 H37         0.5730   -1.9860    2.2320 h1        1 MOL      0.078635
     93 H38         2.0860   -4.4930    3.0990 hc        1 MOL     -0.007571
     94 H39         0.2360   -3.6080    4.6630 hc        1 MOL     -0.018352
     95 H40         1.3520   -2.3000    4.9790 hc        1 MOL     -0.018352
     96 H41         3.7740   -2.7180    3.8160 hc        1 MOL      0.045433
     97 H42         3.6880   -3.0790    2.1990 hc        1 MOL      0.045433
     98 H43         2.9170   -1.5710    2.8330 hc        1 MOL      0.045433
     99 H44         3.0550   -3.8660    5.5760 hc        1 MOL     -0.008534
    100 H45         1.5460   -4.2280    6.5080 hc        1 MOL     -0.008534
    101 H46         1.9960   -5.1840    5.1270 hc        1 MOL     -0.008534
    102 N10         1.7250   -2.0880   -0.0710 n         1 MOL     -0.283728
    103 C32         2.4880   -1.9810   -1.2930 c3        1 MOL     -0.004738
    104 C33         3.8510   -1.3140   -1.0400 c         1 MOL      0.530528
    105 O16         4.0130   -0.6730   -0.0210 o         1 MOL     -0.397045
    106 C34         1.7260   -1.0200   -2.2040 c3        1 MOL     -0.336538
    107 C35         0.3020   -1.5040   -2.4390 c         1 MOL      0.829161
    108 O17        -0.5960   -1.2990   -1.6190 o         1 MOL     -0.692605
    109 O18         0.0760   -2.0710   -3.5300 o         1 MOL     -0.692605
    110 H47         1.4500   -1.2670    0.4510 hn        1 MOL      0.224804
    111 H48         2.5890   -2.9000   -1.8600 h1        1 MOL      0.083135
    112 H49         2.2230   -0.9670   -3.1740 hc        1 MOL      0.095360
    113 H50         1.7090    0.0020   -1.8300 hc        1 MOL      0.095360
    114 N11         4.7670   -1.4670   -1.9260 n         1 MOL     -0.779726
    115 C36         6.1790   -1.2650   -1.6160 c3        1 MOL      0.574570
    116 C37         6.6580    0.1190   -1.2600 c         1 MOL      0.160284
    117 O19         7.4660    0.1920   -0.3060 o         1 MOL     -0.482997
    118 C38         7.0390   -1.9870   -2.7130 c3        1 MOL     -0.457821
    119 C39         8.5260   -2.0300   -2.4270 ca        1 MOL      0.268418
    120 C40         9.1090   -2.8480   -1.4380 ca        1 MOL     -0.258424
    121 C41         9.3770   -1.1490   -3.0980 ca        1 MOL     -0.258424
    122 C42        10.4130   -2.5300   -0.9550 ca        1 MOL     -0.072172
    123 C43        10.6560   -0.8050   -2.6620 ca        1 MOL     -0.072172
    124 C44        11.1910   -1.5430   -1.6050 ca        1 MOL     -0.135397
    125 H51         4.5680   -2.0350   -2.7370 hn        1 MOL      0.370254
    126 H52         6.3340   -1.8390   -0.6970 h1        1 MOL      0.031861
    127 H53         6.8670   -1.4030   -3.6110 hc        1 MOL      0.115201
    128 H54         6.7450   -3.0320   -2.7110 hc        1 MOL      0.115201
    129 H55         8.4360   -3.4530   -0.8560 ha        1 MOL      0.134844
    130 H56         9.0050   -0.5070   -3.8860 ha        1 MOL      0.134844
    131 H57        10.5760   -3.0200   -0.0080 ha        1 MOL      0.115072
    132 H58        11.1360    0.0450   -3.1080 ha        1 MOL      0.115072
    133 H59        12.1710   -1.2370   -1.2560 ha        1 MOL      0.099205
    134 N12         6.1740    1.2230   -1.8630 n         1 MOL      0.067662
    135 C45         6.4680    2.5980   -1.3340 c3        1 MOL     -0.078158
    136 C46         5.7680    2.9130   -0.0050 c         1 MOL      0.339527
    137 O20         6.0460    3.9320    0.6030 o         1 MOL     -0.516087
    138 C47         5.9550    3.5220   -2.4950 c3        1 MOL     -0.097020
    139 C48         5.7430    2.5970   -3.6490 c3        1 MOL     -0.002603
    140 C49         5.4120    1.2070   -3.1040 c3        1 MOL     -0.081294
    141 H60         7.5180    2.5700   -1.0770 h1        1 MOL      0.097095
    142 H61         5.0550    4.0580   -2.1970 hc        1 MOL      0.064244
    143 H62         6.6960    4.2560   -2.8160 hc        1 MOL      0.064244
    144 H63         4.9100    2.8510   -4.3010 hc        1 MOL      0.016355
    145 H64         6.6590    2.4470   -4.2240 hc        1 MOL      0.016355
    146 H65         4.3500    1.1100   -2.8900 h1        1 MOL      0.061600
    147 H66         5.8630    0.4700   -3.7830 h1        1 MOL      0.061600
    148 N13         4.7880    2.1490    0.3780 n         1 MOL     -0.077364
    149 C50         4.2360    2.2670    1.7460 c3        1 MOL     -0.110114
    150 C51         5.0930    1.5330    2.7970 c         1 MOL      0.489250
    151 O21         5.3320    2.0370    3.8920 o         1 MOL     -0.548575
    152 C52         2.8210    1.6360    1.7490 c3        1 MOL      0.015508
    153 C53         1.8150    2.2500    0.6800 c3        1 MOL     -0.022081
    154 C54         0.5450    1.4430    0.3930 c         1 MOL      0.581708
    155 O22        -0.3820    1.8820   -0.3320 o         1 MOL     -0.681347
    156 O23         0.2960    0.3880    0.9760 o         1 MOL     -0.681347
    157 H67         4.5460    1.3430   -0.1820 hn        1 MOL      0.157761
    158 H68         4.3120    3.3130    2.0700 h1        1 MOL      0.114299
    159 H69         2.3120    1.8220    2.7000 hc        1 MOL      0.004412
    160 H70         2.8630    0.5550    1.6400 hc        1 MOL      0.004412
    161 H71         2.3190    2.1910   -0.2900 hc        1 MOL      0.015549
    162 H72         1.5690    3.2990    0.8400 hc        1 MOL      0.015549
    163 N14         5.6060    0.3780    2.3500 n         1 MOL     -0.144575
    164 C55         6.6100   -0.3940    3.1330 c3        1 MOL     -0.173214
    165 H73         7.2050   -1.0070    2.4560 h1        1 MOL      0.074149
    166 H74         7.2630    0.2950    3.6680 h1        1 MOL      0.074149
    167 H75         6.0970   -1.0380    3.8480 h1        1 MOL      0.074149
    168 H76         5.3760   -0.0130    1.4460 hn        1 MOL      0.117325
    169 Ca1        -2.0900    0.0020    0.0770 Ca        1 MOL      1.626516
    170 O24        -4.6400   -0.4930    1.2400 oh        1 MOL     -0.710709
    171 H77        -4.7630   -0.5920    2.1880 ho        1 MOL      0.359186
    172 H78        -4.7930    0.4350    1.0760 ho        1 MOL      0.359186
    173 O25        -1.7130    0.2630    2.7540 oh        1 MOL     -0.710709
    174 H79        -0.7900    0.2550    2.9950 ho        1 MOL      0.359186
    175 H80        -2.1780    0.0820    3.5700 ho        1 MOL      0.359186
@<TRIPOS>BOND
     1    1    2 1   
     2    1    4 1   
     3    1    5 1   
     4    1    6 1   
     5    2    3 2   
     6    2    7 1   
     7    7    8 1   
     8    7   15 1   
     9    8    9 1   
    10    8   11 1   
    11    8   16 1   
    12    9   10 2   
    13    9   19 1   
    14   11   12 1   
    15   11   17 1   
    16   11   18 1   
    17   12   13 1   
    18   12   14 1   
    19   19   20 1   
    20   19   24 1   
    21   20   21 1   
    22   20   23 1   
    23   20   25 1   
    24   21   22 2   
    25   21   29 1   
    26   23   26 1   
    27   23   27 1   
    28   23   28 1   
    29   29   30 1   
    30   29   37 1   
    31   30   31 1   
    32   30   33 1   
    33   30   38 1   
    34   31   32 2   
    35   31   41 1   
    36   33   34 1   
    37   33   39 1   
    38   33   40 1   
    39   34   35 1   
    40   34   36 1   
    41   41   42 1   
    42   41   45 1   
    43   42   43 1   
    44   42   46 1   
    45   42   47 1   
    46   43   44 2   
    47   43   48 1   
    48   48   49 1   
    49   48   56 1   
    50   49   50 1   
    51   49   52 1   
    52   49   57 1   
    53   50   51 2   
    54   50   62 1   
    55   52   53 1   
    56   52   58 1   
    57   52   59 1   
    58   53   54 1   
    59   53   55 2   
    60   54   60 1   
    61   54   61 1   
    62   62   63 1   
    63   62   66 1   
    64   63   64 1   
    65   63   67 1   
    66   63   68 1   
    67   64   65 2   
    68   64   69 1   
    69   69   70 1   
    70   69   76 1   
    71   70   71 1   
    72   70   73 1   
    73   70   77 1   
    74   71   72 2   
    75   71   83 1   
    76   73   74 1   
    77   73   75 1   
    78   73   78 1   
    79   74   80 1   
    80   74   81 1   
    81   74   82 1   
    82   75   79 1   
    83   83   84 1   
    84   83   91 1   
    85   84   85 1   
    86   84   87 1   
    87   84   92 1   
    88   85   86 2   
    89   85  102 1   
    90   87   88 1   
    91   87   89 1   
    92   87   93 1   
    93   88   90 1   
    94   88   94 1   
    95   88   95 1   
    96   89   96 1   
    97   89   97 1   
    98   89   98 1   
    99   90   99 1   
   100   90  100 1   
   101   90  101 1   
   102  102  103 1   
   103  102  110 1   
   104  103  104 1   
   105  103  106 1   
   106  103  111 1   
   107  104  105 2   
   108  104  114 1   
   109  106  107 1   
   110  106  112 1   
   111  106  113 1   
   112  107  108 1   
   113  107  109 1   
   114  114  115 1   
   115  114  125 1   
   116  115  116 1   
   117  115  118 1   
   118  115  126 1   
   119  116  117 2   
   120  116  134 1   
   121  118  119 1   
   122  118  127 1   
   123  118  128 1   
   124  119  120 ar  
   125  119  121 ar  
   126  120  122 ar  
   127  120  129 1   
   128  121  123 ar  
   129  121  130 1   
   130  122  124 ar  
   131  122  131 1   
   132  123  124 ar  
   133  123  132 1   
   134  124  133 1   
   135  134  135 1   
   136  134  140 1   
   137  135  136 1   
   138  135  138 1   
   139  135  141 1   
   140  136  137 2   
   141  136  148 1   
   142  138  139 1   
   143  138  142 1   
   144  138  143 1   
   145  139  140 1   
   146  139  144 1   
   147  139  145 1   
   148  140  146 1   
   149  140  147 1   
   150  148  149 1   
   151  148  157 1   
   152  149  150 1   
   153  149  152 1   
   154  149  158 1   
   155  150  151 2   
   156  150  163 1   
   157  152  153 1   
   158  152  159 1   
   159  152  160 1   
   160  153  154 1   
   161  153  161 1   
   162  153  162 1   
   163  154  155 1   
   164  154  156 1   
   165  163  164 1   
   166  163  168 1   
   167  164  165 1   
   168  164  166 1   
   169  164  167 1   
   170  170  171 1   
   171  170  172 1   
   172  173  174 1   
   173  173  175 1   
@<TRIPOS>SUBSTRUCTURE
     1 MOL         1 TEMP              0 ****  ****    0 ROOT
