@<TRIPOS>MOLECULE
MOL
  179   176     1     0     0
SMALL
resp


@<TRIPOS>ATOM
      1 C1          0.5220    5.1480    4.6560 c3        1 MOL     -0.506297
      2 C2          0.1920    4.3570    3.3160 c         1 MOL      0.722549
      3 O1          0.8100    4.6140    2.2960 o         1 MOL     -0.572204
      4 H1          1.3680    4.6770    5.1560 hc        1 MOL      0.132625
      5 H2          0.7730    6.1820    4.4160 hc        1 MOL      0.132625
      6 H3         -0.3460    5.1270    5.3140 hc        1 MOL      0.132625
      7 N1         -0.8790    3.5180    3.2770 n         1 MOL     -0.599395
      8 C3         -1.3840    2.9510    2.0240 c3        1 MOL      0.131100
      9 C4         -2.1160    4.0260    1.2000 c         1 MOL      0.489638
     10 O2         -3.3450    4.1940    1.2980 o         1 MOL     -0.495761
     11 C5         -2.3550    1.7980    2.4070 c3        1 MOL     -0.098337
     12 C6         -2.9520    1.1100    1.2440 c         1 MOL      0.742360
     13 O3         -2.2790    1.0560    0.2230 o         1 MOL     -0.725882
     14 O4         -4.0500    0.5110    1.3930 o         1 MOL     -0.725882
     15 H4         -1.4650    3.4020    4.0990 hn        1 MOL      0.330472
     16 H5         -0.6050    2.5350    1.3830 h1        1 MOL     -0.001528
     17 H6         -3.1710    2.2610    2.9790 hc        1 MOL      0.022011
     18 H7         -1.9220    1.0110    3.0270 hc        1 MOL      0.022011
     19 N2         -1.3570    4.7590    0.3850 n         1 MOL     -0.536609
     20 C7         -1.9850    5.9780   -0.3040 c3        1 MOL      0.297014
     21 C8         -3.2490    5.5280   -1.1080 c         1 MOL      0.303153
     22 O5         -4.3200    6.0670   -1.0250 o         1 MOL     -0.524630
     23 C9         -1.0720    6.7430   -1.1650 c3        1 MOL     -0.274758
     24 C10         0.2300    7.1830   -0.4920 c3        1 MOL      0.150340
     25 C11         0.0870    8.2280    0.6370 c3        1 MOL     -0.213977
     26 C12         1.3960    8.3920    1.3980 c3        1 MOL      0.002869
     27 N3          1.1940    8.8250    2.7880 n4        1 MOL     -0.411572
     28 H8         -0.3560    4.6070    0.3660 hn        1 MOL      0.374574
     29 H9         -2.3560    6.7240    0.3950 h1        1 MOL      0.008896
     30 H10        -1.6660    7.5930   -1.5010 hc        1 MOL      0.082568
     31 H11        -0.8050    6.1570   -2.0480 hc        1 MOL      0.082568
     32 H12         1.0150    7.5440   -1.1540 hc        1 MOL      0.004749
     33 H13         0.6030    6.3060    0.0240 hc        1 MOL      0.004749
     34 H14        -0.7220    7.9570    1.3130 hc        1 MOL      0.081067
     35 H15        -0.1730    9.1380    0.1120 hc        1 MOL      0.081067
     36 H16         2.0870    8.9730    0.7840 hx        1 MOL      0.114203
     37 H17         1.9350    7.4440    1.4790 hx        1 MOL      0.114203
     38 H18         2.0260    8.9490    3.3440 hn        1 MOL      0.340526
     39 H19         0.8820    9.7780    2.6780 hn        1 MOL      0.340526
     40 H20         0.4570    8.2670    3.2090 hn        1 MOL      0.340526
     41 N4         -3.1180    4.4780   -1.8590 n         1 MOL     -0.160209
     42 C13        -4.1590    3.9730   -2.7870 c3        1 MOL     -0.074840
     43 C14        -5.3300    3.1820   -2.1100 c         1 MOL      0.433225
     44 O6         -6.3900    2.9840   -2.7390 o         1 MOL     -0.521829
     45 C15        -3.4370    3.0080   -3.8020 c3        1 MOL     -0.336271
     46 C16        -2.5460    1.9890   -3.1300 c         1 MOL      0.741240
     47 O7         -1.4210    2.2650   -2.6890 o         1 MOL     -0.725769
     48 O8         -2.9340    0.7630   -3.1590 o         1 MOL     -0.725769
     49 H21        -2.2220    4.0280   -1.8670 hn        1 MOL      0.213029
     50 H22        -4.5230    4.8280   -3.3580 h1        1 MOL      0.124017
     51 H23        -2.8130    3.5630   -4.5060 hc        1 MOL      0.100951
     52 H24        -4.2380    2.5050   -4.3550 hc        1 MOL      0.100951
     53 N5         -5.1520    2.8020   -0.8030 n         1 MOL      0.044883
     54 C17        -6.2660    2.4800    0.0230 c3        1 MOL     -0.348275
     55 C18        -6.8650    1.0600   -0.1930 c         1 MOL      0.592909
     56 O9         -8.0170    0.8080    0.1280 o         1 MOL     -0.561210
     57 H25        -4.2370    2.9380   -0.4060 hn        1 MOL      0.144934
     58 H26        -7.0750    3.1530   -0.2570 h1        1 MOL      0.130352
     59 H27        -5.8190    2.5450    1.0190 h1        1 MOL      0.130352
     60 N6         -6.0190    0.2170   -0.7630 n         1 MOL     -0.186241
     61 C19        -6.3900   -1.1700   -1.0580 c3        1 MOL     -0.033079
     62 C20        -6.3610   -2.1410    0.1240 c         1 MOL      0.287781
     63 O10        -7.0010   -3.1960    0.1470 o         1 MOL     -0.515893
     64 C21        -5.5760   -1.7550   -2.2630 c3        1 MOL     -0.104204
     65 C22        -4.1450   -2.0270   -2.0100 c         1 MOL      0.419945
     66 N7         -3.6370   -3.1060   -2.5250 n         1 MOL     -0.490001
     67 O11        -3.4920   -1.3850   -1.2540 o         1 MOL     -0.581295
     68 H28        -5.0500    0.5060   -0.7760 hn        1 MOL      0.107573
     69 H29        -7.4140   -1.1220   -1.4170 h1        1 MOL      0.101857
     70 H30        -5.7390   -0.9700   -3.0050 hc        1 MOL      0.073325
     71 H31        -6.0320   -2.6560   -2.6870 hc        1 MOL      0.073325
     72 H32        -4.2870   -3.5180   -3.1810 hn        1 MOL      0.274718
     73 H33        -2.6490   -3.3160   -2.5040 hn        1 MOL      0.274718
     74 N8         -5.5890   -1.8370    1.1120 n         1 MOL      0.029650
     75 C23        -5.3530   -2.6440    2.3520 c3        1 MOL     -0.253636
     76 C24        -4.0390   -3.3570    2.4680 c         1 MOL      0.756229
     77 O12        -3.7740   -4.0500    3.4570 o         1 MOL     -0.619085
     78 H34        -5.2180   -0.9080    0.9580 hn        1 MOL      0.134628
     79 H35        -6.1710   -3.3270    2.5720 h1        1 MOL      0.111480
     80 H36        -5.3850   -1.9600    3.2030 h1        1 MOL      0.111480
     81 N9         -3.1190   -3.1400    1.5290 n         1 MOL     -0.659173
     82 C25        -1.8190   -3.8370    1.5060 c3        1 MOL      0.195028
     83 C26        -0.7420   -2.8020    1.0720 c         1 MOL      0.386714
     84 O13        -0.9200   -2.2380    0.0350 o         1 MOL     -0.510453
     85 C27        -1.8900   -4.9500    0.5430 c3        1 MOL      0.078179
     86 C28        -2.8950   -6.0860    0.6210 ca        1 MOL     -0.198902
     87 C29        -4.1800   -5.9060    0.1020 ca        1 MOL      0.022589
     88 C30        -2.6280   -7.2800    1.3830 ca        1 MOL      0.022589
     89 C31        -5.1300   -6.9220    0.0990 ca        1 MOL     -0.402754
     90 C32        -3.5390   -8.3270    1.3140 ca        1 MOL     -0.402754
     91 C33        -4.7990   -8.1340    0.7490 ca        1 MOL      0.491113
     92 O14        -5.6740   -9.1110    0.9810 oh        1 MOL     -0.501939
     93 H37        -3.3230   -2.5540    0.7390 hn        1 MOL      0.425253
     94 H38        -1.6540   -4.2970    2.4800 h1        1 MOL      0.068043
     95 H39        -0.9000   -5.3970    0.5720 hc        1 MOL     -0.004814
     96 H40        -2.1260   -4.5140   -0.4280 hc        1 MOL     -0.004814
     97 H41        -4.5150   -5.0160   -0.4280 ha        1 MOL      0.088084
     98 H42        -1.6320   -7.3740    1.7730 ha        1 MOL      0.088084
     99 H43        -6.1580   -6.8860   -0.2400 ha        1 MOL      0.170400
    100 H44        -3.2890   -9.2210    1.8660 ha        1 MOL      0.170400
    101 H45        -5.3480   -9.8460    1.4990 ho        1 MOL      0.354720
    102 N10         0.3500   -2.6280    1.7990 n         1 MOL     -0.240166
    103 C34         1.5600   -1.8690    1.4280 c3        1 MOL     -0.064384
    104 C35         2.6660   -2.8040    0.9110 c         1 MOL      0.597727
    105 O15         2.8180   -3.9050    1.4070 o         1 MOL     -0.598125
    106 C36         1.9950   -0.7830    2.4190 c3        1 MOL     -0.066018
    107 C37         2.6680   -1.4630    3.7170 c3        1 MOL     -0.300605
    108 C38         0.8560    0.2010    2.6600 c3        1 MOL      0.039572
    109 C39         3.1600   -0.5780    4.8830 c3        1 MOL     -0.384565
    110 H46         0.3810   -3.1730    2.6480 hn        1 MOL      0.198109
    111 H47         1.2190   -1.3200    0.5440 h1        1 MOL     -0.056638
    112 H48         2.7280   -0.0970    1.9930 hc        1 MOL      0.108202
    113 H49         3.5680   -1.9810    3.3860 hc        1 MOL      0.143238
    114 H50         1.9690   -2.1530    4.1830 hc        1 MOL      0.143238
    115 H51         0.4260    0.5840    1.7370 hc        1 MOL      0.029493
    116 H52        -0.0720   -0.1410    3.1220 hc        1 MOL      0.029493
    117 H53         1.2010    0.9560    3.3780 hc        1 MOL      0.029493
    118 H54         3.8440    0.2150    4.5600 hc        1 MOL      0.117635
    119 H55         2.2560   -0.2810    5.4160 hc        1 MOL      0.117635
    120 H56         3.5980   -1.3130    5.5560 hc        1 MOL      0.117635
    121 N11         3.3750   -2.4740   -0.1230 n         1 MOL     -0.169602
    122 C40         4.5690   -3.2630   -0.6360 c3        1 MOL      0.048499
    123 C41         5.9360   -2.8580   -0.0470 c         1 MOL      0.389959
    124 O16         6.0590   -1.7800    0.5450 o         1 MOL     -0.369063
    125 C42         4.6060   -3.1160   -2.1730 c3        1 MOL     -0.403755
    126 O17         5.1350   -1.8490   -2.4510 oh        1 MOL     -0.397144
    127 H57         3.2210   -1.5870   -0.5820 hn        1 MOL      0.052939
    128 H58         4.4330   -4.3100   -0.3910 h1        1 MOL      0.068567
    129 H59         3.6040   -3.2090   -2.6120 h1        1 MOL      0.186331
    130 H60         5.2540   -3.8760   -2.5930 h1        1 MOL      0.186331
    131 H61         4.6350   -1.4110   -3.1480 ho        1 MOL      0.404237
    132 N12         6.9340   -3.7080   -0.3500 n         1 MOL     -0.393563
    133 C43         8.3010   -3.3160   -0.0250 c3        1 MOL      0.080964
    134 C44         8.7040   -2.0010   -0.7300 c         1 MOL      0.526235
    135 O18         9.5220   -1.3190   -0.1260 o         1 MOL     -0.508528
    136 C45         9.1800   -4.3550   -0.5950 c3        1 MOL     -0.211437
    137 H62         6.7470   -4.5850   -0.8170 hn        1 MOL      0.314375
    138 H63         8.4240   -3.3300    1.0530 h1        1 MOL      0.105470
    139 H64         9.0060   -5.3840   -0.2910 hc        1 MOL      0.059581
    140 H65         8.8200   -4.4030   -1.6190 hc        1 MOL      0.059581
    141 H66        10.1830   -3.9270   -0.6270 hc        1 MOL      0.059581
    142 N13         8.1490   -1.6190   -1.9020 n         1 MOL     -0.414080
    143 C46         8.3490   -0.2900   -2.4660 c3        1 MOL      0.185891
    144 C47         7.6570    0.8070   -1.4860 c         1 MOL      0.298457
    145 O19         8.3560    1.7200   -0.9660 o         1 MOL     -0.499785
    146 C48         7.8980   -0.2770   -3.9180 c3        1 MOL     -0.306235
    147 H67         7.3530   -2.1450   -2.2270 hn        1 MOL      0.229188
    148 H68         9.4210   -0.1390   -2.3590 h1        1 MOL      0.082636
    149 H69         6.8100   -0.3290   -4.0250 hc        1 MOL      0.081371
    150 H70         8.1630    0.7000   -4.3170 hc        1 MOL      0.081371
    151 H71         8.4940   -1.0390   -4.4100 hc        1 MOL      0.081371
    152 N14         6.3320    0.6960   -1.2020 n         1 MOL     -0.088992
    153 C49         5.5310    1.6760   -0.4290 c3        1 MOL     -0.065477
    154 C50         6.1190    1.8480    0.9420 c         1 MOL      0.427371
    155 O20         5.8840    2.9070    1.5420 o         1 MOL     -0.586144
    156 C51         4.0370    1.1510   -0.2110 c3        1 MOL     -0.043623
    157 C52         3.1330    1.3330   -1.4430 c3        1 MOL     -0.048864
    158 C53         1.8160    0.5940   -1.2170 c         1 MOL      0.730223
    159 O21         0.8710    1.1580   -0.7060 o         1 MOL     -0.704618
    160 O22         1.5280   -0.4790   -1.7980 o         1 MOL     -0.704618
    161 H72         5.9610   -0.1570   -1.6120 hn        1 MOL      0.106644
    162 H73         5.4570    2.5990   -1.0180 h1        1 MOL      0.102484
    163 H74         3.6600    1.7890    0.5990 hc        1 MOL      0.046957
    164 H75         3.9850    0.1170    0.1340 hc        1 MOL      0.046957
    165 H76         3.5980    0.8760   -2.3200 hc        1 MOL     -0.004010
    166 H77         2.9750    2.3890   -1.6760 hc        1 MOL     -0.004010
    167 N15         6.6460    0.8070    1.5840 n         1 MOL      0.047525
    168 C54         7.2730    0.7160    2.8760 c3        1 MOL     -0.328107
    169 H78         7.9270   -0.1560    2.9010 h1        1 MOL      0.117632
    170 H79         7.8600    1.6150    3.0600 h1        1 MOL      0.117632
    171 H80         6.5080    0.6170    3.6460 h1        1 MOL      0.117632
    172 H81         6.6150   -0.0020    0.9860 hn        1 MOL      0.043130
    173 Ca1        -1.0640   -0.3330   -1.6920 Ca        1 MOL      1.799283
    174 O23        -0.2150    0.0320   -4.3350 oh        1 MOL     -0.864269
    175 H82         0.3970   -0.3790   -4.9510 ho        1 MOL      0.421624
    176 H83        -0.6530    0.7100   -4.8580 ho        1 MOL      0.421624
    177 O24        -0.6520   -2.8800   -2.8750 oh        1 MOL     -0.864269
    178 H84        -0.6330   -3.7870   -2.5670 ho        1 MOL      0.421624
    179 H85        -0.0100   -2.8440   -3.5830 ho        1 MOL      0.421624
@<TRIPOS>BOND
     1    1    2 1   
     2    1    4 1   
     3    1    5 1   
     4    1    6 1   
     5    2    3 2   
     6    2    7 1   
     7    7    8 1   
     8    7   15 1   
     9    8    9 1   
    10    8   11 1   
    11    8   16 1   
    12    9   10 2   
    13    9   19 1   
    14   11   12 1   
    15   11   17 1   
    16   11   18 1   
    17   12   13 1   
    18   12   14 1   
    19   19   20 1   
    20   19   28 1   
    21   20   21 1   
    22   20   23 1   
    23   20   29 1   
    24   21   22 2   
    25   21   41 1   
    26   23   24 1   
    27   23   30 1   
    28   23   31 1   
    29   24   25 1   
    30   24   32 1   
    31   24   33 1   
    32   25   26 1   
    33   25   34 1   
    34   25   35 1   
    35   26   27 1   
    36   26   36 1   
    37   26   37 1   
    38   27   38 1   
    39   27   39 1   
    40   27   40 1   
    41   41   42 1   
    42   41   49 1   
    43   42   43 1   
    44   42   45 1   
    45   42   50 1   
    46   43   44 2   
    47   43   53 1   
    48   45   46 1   
    49   45   51 1   
    50   45   52 1   
    51   46   47 1   
    52   46   48 1   
    53   53   54 1   
    54   53   57 1   
    55   54   55 1   
    56   54   58 1   
    57   54   59 1   
    58   55   56 2   
    59   55   60 1   
    60   60   61 1   
    61   60   68 1   
    62   61   62 1   
    63   61   64 1   
    64   61   69 1   
    65   62   63 2   
    66   62   74 1   
    67   64   65 1   
    68   64   70 1   
    69   64   71 1   
    70   65   66 1   
    71   65   67 2   
    72   66   72 1   
    73   66   73 1   
    74   74   75 1   
    75   74   78 1   
    76   75   76 1   
    77   75   79 1   
    78   75   80 1   
    79   76   77 2   
    80   76   81 1   
    81   81   82 1   
    82   81   93 1   
    83   82   83 1   
    84   82   85 1   
    85   82   94 1   
    86   83   84 2   
    87   83  102 1   
    88   85   86 1   
    89   85   95 1   
    90   85   96 1   
    91   86   87 ar  
    92   86   88 ar  
    93   87   89 ar  
    94   87   97 1   
    95   88   90 ar  
    96   88   98 1   
    97   89   91 ar  
    98   89   99 1   
    99   90   91 ar  
   100   90  100 1   
   101   91   92 1   
   102   92  101 1   
   103  102  103 1   
   104  102  110 1   
   105  103  104 1   
   106  103  106 1   
   107  103  111 1   
   108  104  105 2   
   109  104  121 1   
   110  106  107 1   
   111  106  108 1   
   112  106  112 1   
   113  107  109 1   
   114  107  113 1   
   115  107  114 1   
   116  108  115 1   
   117  108  116 1   
   118  108  117 1   
   119  109  118 1   
   120  109  119 1   
   121  109  120 1   
   122  121  122 1   
   123  121  127 1   
   124  122  123 1   
   125  122  125 1   
   126  122  128 1   
   127  123  124 2   
   128  123  132 1   
   129  125  126 1   
   130  125  129 1   
   131  125  130 1   
   132  126  131 1   
   133  132  133 1   
   134  132  137 1   
   135  133  134 1   
   136  133  136 1   
   137  133  138 1   
   138  134  135 2   
   139  134  142 1   
   140  136  139 1   
   141  136  140 1   
   142  136  141 1   
   143  142  143 1   
   144  142  147 1   
   145  143  144 1   
   146  143  146 1   
   147  143  148 1   
   148  144  145 2   
   149  144  152 1   
   150  146  149 1   
   151  146  150 1   
   152  146  151 1   
   153  152  153 1   
   154  152  161 1   
   155  153  154 1   
   156  153  156 1   
   157  153  162 1   
   158  154  155 2   
   159  154  167 1   
   160  156  157 1   
   161  156  163 1   
   162  156  164 1   
   163  157  158 1   
   164  157  165 1   
   165  157  166 1   
   166  158  159 1   
   167  158  160 1   
   168  167  168 1   
   169  167  172 1   
   170  168  169 1   
   171  168  170 1   
   172  168  171 1   
   173  174  175 1   
   174  174  176 1   
   175  177  178 1   
   176  177  179 1   
@<TRIPOS>SUBSTRUCTURE
     1 MOL         1 TEMP              0 ****  ****    0 ROOT
