@<TRIPOS>MOLECULE
MOL
  179   176     1     0     0
SMALL
resp


@<TRIPOS>ATOM
      1 C1          2.0050    1.8670    5.4550 c3        1 MOL     -0.224481
      2 C2          1.4250    1.9720    4.0230 c         1 MOL      0.582999
      3 O1          2.2020    1.9970    3.0950 o         1 MOL     -0.506931
      4 H1          1.6950    0.9230    5.9040 hc        1 MOL      0.061930
      5 H2          3.0940    1.9070    5.4100 hc        1 MOL      0.061930
      6 H3          1.6360    2.6950    6.0590 hc        1 MOL      0.061930
      7 N1          0.1020    1.8200    3.9470 n         1 MOL     -0.516541
      8 C3         -0.7640    1.8430    2.7760 c3        1 MOL      0.217703
      9 C4         -0.9950    3.2790    2.2880 c         1 MOL      0.389134
     10 O2         -1.8800    4.0610    2.6480 o         1 MOL     -0.507509
     11 C5         -2.1370    1.3440    3.2440 c3        1 MOL     -0.060851
     12 C6         -3.1330    1.1430    2.0880 c         1 MOL      0.519040
     13 O3         -2.7770    1.1990    0.8520 o         1 MOL     -0.609263
     14 O4         -4.3170    1.0280    2.3840 o         1 MOL     -0.609263
     15 H4         -0.3540    1.6650    4.8330 hn        1 MOL      0.287937
     16 H5         -0.3190    1.1710    2.0310 h1        1 MOL     -0.016629
     17 H6         -2.5370    2.0000    4.0130 hc        1 MOL      0.031714
     18 H7         -1.9600    0.3720    3.7070 hc        1 MOL      0.031714
     19 N2         -0.0480    3.7310    1.4480 n         1 MOL     -0.220658
     20 C7          0.0900    5.0780    0.9170 c3        1 MOL      0.002849
     21 C8         -0.8640    5.6420   -0.1640 c         1 MOL      0.397284
     22 O5         -0.7590    6.7850   -0.5450 o         1 MOL     -0.553559
     23 C9          1.6000    5.2610    0.5690 c3        1 MOL     -0.015680
     24 C10         2.1400    6.6770    0.3930 c3        1 MOL     -0.023355
     25 C11         3.6820    6.7410   -0.0340 c3        1 MOL     -0.098381
     26 C12         3.7630    6.5560   -1.5600 c3        1 MOL      0.151974
     27 N3          5.1780    6.5260   -1.9840 n4        1 MOL     -0.545315
     28 H8          0.5880    3.0020    1.1760 hn        1 MOL      0.127594
     29 H9         -0.0560    5.6940    1.8030 h1        1 MOL      0.083848
     30 H10         1.8670    4.7680   -0.3760 hc        1 MOL      0.044616
     31 H11         2.2060    4.8170    1.3580 hc        1 MOL      0.044616
     32 H12         2.0850    7.2650    1.3190 hc        1 MOL      0.036300
     33 H13         1.5670    7.2680   -0.3130 hc        1 MOL      0.036300
     34 H14         4.1400    5.8600    0.4260 hc        1 MOL      0.050875
     35 H15         4.1460    7.6510    0.3380 hc        1 MOL      0.050875
     36 H16         3.1830    7.3000   -2.1070 hx        1 MOL      0.060583
     37 H17         3.2910    5.5960   -1.7760 hx        1 MOL      0.060583
     38 H18         5.6080    7.4220   -1.8340 hn        1 MOL      0.370395
     39 H19         5.6000    5.6980   -1.5730 hn        1 MOL      0.370395
     40 H20         5.3530    6.4930   -2.9850 hn        1 MOL      0.370395
     41 N4         -1.8020    4.8880   -0.6870 n         1 MOL     -0.086703
     42 C13        -2.8950    5.3570   -1.5490 c3        1 MOL      0.106787
     43 C14        -4.1810    5.0310   -0.8460 c         1 MOL      0.289143
     44 O6         -5.1980    5.6900   -1.1440 o         1 MOL     -0.556468
     45 C15        -2.8140    4.5980   -2.8580 c3        1 MOL     -0.301914
     46 C16        -2.8240    3.1040   -2.8340 c         1 MOL      0.685903
     47 O7         -2.5770    2.4220   -1.8010 o         1 MOL     -0.678686
     48 O8         -2.9280    2.5540   -3.9720 o         1 MOL     -0.678686
     49 H21        -1.8860    3.9020   -0.4950 hn        1 MOL      0.018095
     50 H22        -2.7950    6.4220   -1.7650 h1        1 MOL      0.091640
     51 H23        -1.9720    5.1080   -3.3230 hc        1 MOL      0.089809
     52 H24        -3.7020    4.8580   -3.4500 hc        1 MOL      0.089809
     53 N5         -4.3310    4.0730    0.0010 n         1 MOL      0.008121
     54 C17        -5.6130    3.7780    0.7100 c3        1 MOL     -0.234987
     55 C18        -6.3660    2.6140    0.0720 c         1 MOL      0.588419
     56 O9         -7.5620    2.5190    0.2500 o         1 MOL     -0.582209
     57 H25        -3.4740    3.6510    0.3290 hn        1 MOL      0.103773
     58 H26        -6.2490    4.6520    0.5640 h1        1 MOL      0.126332
     59 H27        -5.3670    3.6830    1.7730 h1        1 MOL      0.126332
     60 N6         -5.7220    1.7440   -0.7200 n         1 MOL     -0.181113
     61 C19        -6.4320    0.6510   -1.3680 c3        1 MOL     -0.208249
     62 C20        -6.5730   -0.5890   -0.4020 c         1 MOL      0.248119
     63 O10        -7.1200   -1.6160   -0.8180 o         1 MOL     -0.425140
     64 C21        -5.8690    0.3530   -2.7420 c3        1 MOL     -0.153906
     65 C22        -4.6370   -0.4740   -2.6330 c         1 MOL      0.614501
     66 N7         -4.5750   -1.6060   -3.2890 n         1 MOL     -0.697012
     67 O11        -3.6970   -0.1470   -1.9530 o         1 MOL     -0.633167
     68 H28        -4.7460    1.9370   -0.8950 hn        1 MOL      0.219749
     69 H29        -7.4770    0.9440   -1.4490 h1        1 MOL      0.174198
     70 H30        -5.5710    1.2920   -3.1980 hc        1 MOL      0.098693
     71 H31        -6.5560   -0.0980   -3.4640 hc        1 MOL      0.098693
     72 H32        -5.3340   -1.9700   -3.8450 hn        1 MOL      0.341274
     73 H33        -3.7040   -2.1110   -3.2310 hn        1 MOL      0.341274
     74 N8         -6.1810   -0.5090    0.8430 n         1 MOL      0.003926
     75 C23        -6.2700   -1.5490    1.8100 c3        1 MOL     -0.298575
     76 C24        -5.2060   -2.6450    1.7070 c         1 MOL      0.502909
     77 O12        -5.4770   -3.7750    2.1960 o         1 MOL     -0.501076
     78 H34        -5.6620    0.3250    1.0950 hn        1 MOL      0.172543
     79 H35        -7.2690   -1.9890    1.7940 h1        1 MOL      0.135343
     80 H36        -6.1190   -1.0080    2.7470 h1        1 MOL      0.135343
     81 N9         -4.0830   -2.4180    0.9610 n         1 MOL     -0.322900
     82 C25        -2.9060   -3.3190    0.8590 c3        1 MOL      0.190137
     83 C26        -1.5590   -2.6260    1.0270 c         1 MOL      0.365968
     84 O13        -1.4280   -1.3970    0.9270 o         1 MOL     -0.632633
     85 C27        -3.0180   -3.9870   -0.5030 c3        1 MOL     -0.059347
     86 C28        -4.1290   -4.9420   -0.6060 ca        1 MOL      0.228208
     87 C29        -5.4100   -4.4660   -0.8400 ca        1 MOL     -0.364529
     88 C30        -3.8620   -6.3420   -0.4820 ca        1 MOL     -0.364529
     89 C31        -6.5170   -5.4150   -0.9730 ca        1 MOL     -0.125977
     90 C32        -4.9850   -7.2300   -0.4950 ca        1 MOL     -0.125977
     91 C33        -6.2620   -6.7670   -0.7700 ca        1 MOL      0.271873
     92 O14        -7.2570   -7.6920   -0.7970 oh        1 MOL     -0.478164
     93 H37        -4.0880   -1.5270    0.4940 hn        1 MOL      0.284033
     94 H38        -3.0040   -4.0750    1.6390 h1        1 MOL      0.018757
     95 H39        -2.0580   -4.4470   -0.7340 hc        1 MOL     -0.013975
     96 H40        -3.2410   -3.1540   -1.1650 hc        1 MOL     -0.013975
     97 H41        -5.7390   -3.4640   -1.0580 ha        1 MOL      0.167793
     98 H42        -2.8660   -6.7100   -0.2780 ha        1 MOL      0.167793
     99 H43        -7.5180   -5.0400   -1.1280 ha        1 MOL      0.123309
    100 H44        -4.7860   -8.2710   -0.2690 ha        1 MOL      0.123309
    101 H45        -6.9530   -8.5650   -0.5390 ho        1 MOL      0.341949
    102 N10        -0.5120   -3.3700    1.1610 n         1 MOL     -0.172210
    103 C34         0.8850   -2.8660    1.3350 c3        1 MOL     -0.288285
    104 C35         1.8270   -3.6770    0.3870 c         1 MOL      0.589060
    105 O15         1.7870   -4.8930    0.3650 o         1 MOL     -0.554592
    106 C36         1.4420   -2.9910    2.7630 c3        1 MOL      0.130329
    107 C37         0.4750   -2.5990    3.9230 c3        1 MOL      0.046538
    108 C38         2.6570   -2.0980    3.0050 c3        1 MOL     -0.117446
    109 C39         0.7950   -2.8420    5.3740 c3        1 MOL     -0.272783
    110 H46        -0.6460   -4.3670    1.2560 hn        1 MOL      0.236671
    111 H47         0.8760   -1.8010    1.0940 h1        1 MOL      0.218076
    112 H48         1.7930   -3.9800    3.0610 hc        1 MOL      0.022673
    113 H49        -0.4530   -3.0950    3.6170 hc        1 MOL      0.005035
    114 H50         0.1610   -1.5530    3.7880 hc        1 MOL      0.005035
    115 H51         2.5030   -1.0160    2.9480 hc        1 MOL      0.020341
    116 H52         3.1370   -2.3650    3.9510 hc        1 MOL      0.020341
    117 H53         3.4570   -2.3120    2.3030 hc        1 MOL      0.020341
    118 H54         0.1280   -2.1770    5.9390 hc        1 MOL      0.073679
    119 H55         0.5550   -3.8530    5.7020 hc        1 MOL      0.073679
    120 H56         1.8260   -2.5900    5.6090 hc        1 MOL      0.073679
    121 N11         2.6280   -3.0070   -0.4760 n         1 MOL     -0.307554
    122 C40         3.6500   -3.5710   -1.3460 c3        1 MOL      0.200849
    123 C41         5.0980   -3.4150   -0.7680 c         1 MOL      0.319695
    124 O16         5.3070   -2.7550    0.2550 o         1 MOL     -0.313942
    125 C42         3.5240   -2.8430   -2.6730 c3        1 MOL     -0.157757
    126 O17         4.2210   -1.6560   -2.7030 oh        1 MOL     -0.350232
    127 H57         2.5710   -1.9980   -0.4340 hn        1 MOL      0.073325
    128 H58         3.4130   -4.6310   -1.4570 h1        1 MOL      0.043703
    129 H59         2.4910   -2.6740   -2.9890 h1        1 MOL      0.074509
    130 H60         3.9970   -3.4700   -3.4230 h1        1 MOL      0.074509
    131 H61         3.6140   -1.1160   -3.2240 ho        1 MOL      0.363278
    132 N12         6.0910   -4.1440   -1.3280 n         1 MOL     -0.438208
    133 C43         7.4670   -4.0130   -0.7790 c3        1 MOL      0.210947
    134 C44         8.0720   -2.6050   -1.1390 c         1 MOL      0.357411
    135 O18         8.9480   -2.2040   -0.3550 o         1 MOL     -0.487561
    136 C45         8.3400   -5.1430   -1.3790 c3        1 MOL     -0.320475
    137 H62         5.8720   -4.7630   -2.0900 hn        1 MOL      0.284847
    138 H63         7.4430   -4.1830    0.3000 h1        1 MOL      0.079111
    139 H64         9.2430   -5.2290   -0.7740 hc        1 MOL      0.097504
    140 H65         7.7500   -6.0440   -1.1990 hc        1 MOL      0.097504
    141 H66         8.4980   -5.0170   -2.4390 hc        1 MOL      0.097504
    142 N13         7.6510   -1.9570   -2.2070 n         1 MOL     -0.309533
    143 C46         7.8720   -0.5010   -2.4680 c3        1 MOL      0.104671
    144 C47         7.2880    0.4520   -1.3540 c         1 MOL      0.345643
    145 O19         7.9390    1.4040   -0.8160 o         1 MOL     -0.497337
    146 C48         7.1780   -0.3000   -3.7830 c3        1 MOL     -0.175807
    147 H67         7.2130   -2.5480   -2.9000 hn        1 MOL      0.263326
    148 H68         8.9390   -0.3460   -2.6080 h1        1 MOL      0.084964
    149 H69         6.2030   -0.7850   -3.8060 hc        1 MOL      0.039558
    150 H70         7.0940    0.7860   -3.9030 hc        1 MOL      0.039558
    151 H71         7.7210   -0.7550   -4.6110 hc        1 MOL      0.039558
    152 N14         6.0520    0.1300   -0.8560 n         1 MOL      0.003962
    153 C49         5.4470    0.8700    0.2330 c3        1 MOL     -0.198706
    154 C50         6.1870    0.5650    1.6080 c         1 MOL      0.536204
    155 O20         6.3770    1.5350    2.3980 o         1 MOL     -0.586418
    156 C51         3.9570    0.4260    0.4270 c3        1 MOL      0.194741
    157 C52         3.0470    1.3000   -0.3900 c3        1 MOL     -0.038406
    158 C53         1.5690    0.8840   -0.3980 c         1 MOL      0.842571
    159 O21         1.2250   -0.3350   -0.6610 o         1 MOL     -0.774409
    160 O22         0.7000    1.7680   -0.3960 o         1 MOL     -0.774409
    161 H72         5.4190   -0.5440   -1.2800 hn        1 MOL     -0.030150
    162 H73         5.4970    1.9350    0.0060 h1        1 MOL      0.093271
    163 H74         3.7170    0.4890    1.4870 hc        1 MOL     -0.018432
    164 H75         3.8190   -0.5800    0.0330 hc        1 MOL     -0.018432
    165 H76         3.4500    1.2770   -1.4040 hc        1 MOL     -0.032862
    166 H77         3.1560    2.2950    0.0490 hc        1 MOL     -0.032862
    167 N15         6.5420   -0.6520    1.9040 n         1 MOL     -0.142423
    168 C54         7.4630   -1.0210    3.0100 c3        1 MOL     -0.224151
    169 H78         7.0330   -1.8460    3.5790 h1        1 MOL      0.105903
    170 H79         8.4240   -1.3280    2.5960 h1        1 MOL      0.105903
    171 H80         7.6060   -0.1630    3.6660 h1        1 MOL      0.105903
    172 H81         6.2400   -1.3700    1.2550 hn        1 MOL      0.108543
    173 Ca1        -1.2980    0.3310   -1.0060 Ca        1 MOL      1.735882
    174 O23        -1.1190   -2.0700   -2.2860 oh        1 MOL     -0.763655
    175 H82        -0.9160   -1.9280   -3.2130 ho        1 MOL      0.382826
    176 H83        -0.9210   -2.9900   -2.1350 ho        1 MOL      0.382826
    177 O24         0.2590    0.5360   -3.4250 oh        1 MOL     -0.763655
    178 H84        -0.0820    0.0130   -4.1530 ho        1 MOL      0.382826
    179 H85         1.2050    0.4070   -3.4640 ho        1 MOL      0.382826
@<TRIPOS>BOND
     1    1    2 1   
     2    1    4 1   
     3    1    5 1   
     4    1    6 1   
     5    2    3 2   
     6    2    7 1   
     7    7    8 1   
     8    7   15 1   
     9    8    9 1   
    10    8   11 1   
    11    8   16 1   
    12    9   10 2   
    13    9   19 1   
    14   11   12 1   
    15   11   17 1   
    16   11   18 1   
    17   12   13 1   
    18   12   14 1   
    19   19   20 1   
    20   19   28 1   
    21   20   21 1   
    22   20   23 1   
    23   20   29 1   
    24   21   22 2   
    25   21   41 1   
    26   23   24 1   
    27   23   30 1   
    28   23   31 1   
    29   24   25 1   
    30   24   32 1   
    31   24   33 1   
    32   25   26 1   
    33   25   34 1   
    34   25   35 1   
    35   26   27 1   
    36   26   36 1   
    37   26   37 1   
    38   27   38 1   
    39   27   39 1   
    40   27   40 1   
    41   41   42 1   
    42   41   49 1   
    43   42   43 1   
    44   42   45 1   
    45   42   50 1   
    46   43   44 2   
    47   43   53 1   
    48   45   46 1   
    49   45   51 1   
    50   45   52 1   
    51   46   47 1   
    52   46   48 1   
    53   53   54 1   
    54   53   57 1   
    55   54   55 1   
    56   54   58 1   
    57   54   59 1   
    58   55   56 2   
    59   55   60 1   
    60   60   61 1   
    61   60   68 1   
    62   61   62 1   
    63   61   64 1   
    64   61   69 1   
    65   62   63 2   
    66   62   74 1   
    67   64   65 1   
    68   64   70 1   
    69   64   71 1   
    70   65   66 1   
    71   65   67 2   
    72   66   72 1   
    73   66   73 1   
    74   74   75 1   
    75   74   78 1   
    76   75   76 1   
    77   75   79 1   
    78   75   80 1   
    79   76   77 2   
    80   76   81 1   
    81   81   82 1   
    82   81   93 1   
    83   82   83 1   
    84   82   85 1   
    85   82   94 1   
    86   83   84 2   
    87   83  102 1   
    88   85   86 1   
    89   85   95 1   
    90   85   96 1   
    91   86   87 ar  
    92   86   88 ar  
    93   87   89 ar  
    94   87   97 1   
    95   88   90 ar  
    96   88   98 1   
    97   89   91 ar  
    98   89   99 1   
    99   90   91 ar  
   100   90  100 1   
   101   91   92 1   
   102   92  101 1   
   103  102  103 1   
   104  102  110 1   
   105  103  104 1   
   106  103  106 1   
   107  103  111 1   
   108  104  105 2   
   109  104  121 1   
   110  106  107 1   
   111  106  108 1   
   112  106  112 1   
   113  107  109 1   
   114  107  113 1   
   115  107  114 1   
   116  108  115 1   
   117  108  116 1   
   118  108  117 1   
   119  109  118 1   
   120  109  119 1   
   121  109  120 1   
   122  121  122 1   
   123  121  127 1   
   124  122  123 1   
   125  122  125 1   
   126  122  128 1   
   127  123  124 2   
   128  123  132 1   
   129  125  126 1   
   130  125  129 1   
   131  125  130 1   
   132  126  131 1   
   133  132  133 1   
   134  132  137 1   
   135  133  134 1   
   136  133  136 1   
   137  133  138 1   
   138  134  135 2   
   139  134  142 1   
   140  136  139 1   
   141  136  140 1   
   142  136  141 1   
   143  142  143 1   
   144  142  147 1   
   145  143  144 1   
   146  143  146 1   
   147  143  148 1   
   148  144  145 2   
   149  144  152 1   
   150  146  149 1   
   151  146  150 1   
   152  146  151 1   
   153  152  153 1   
   154  152  161 1   
   155  153  154 1   
   156  153  156 1   
   157  153  162 1   
   158  154  155 2   
   159  154  167 1   
   160  156  157 1   
   161  156  163 1   
   162  156  164 1   
   163  157  158 1   
   164  157  165 1   
   165  157  166 1   
   166  158  159 1   
   167  158  160 1   
   168  167  168 1   
   169  167  172 1   
   170  168  169 1   
   171  168  170 1   
   172  168  171 1   
   173  174  175 1   
   174  174  176 1   
   175  177  178 1   
   176  177  179 1   
@<TRIPOS>SUBSTRUCTURE
     1 MOL         1 TEMP              0 ****  ****    0 ROOT
