@<TRIPOS>MOLECULE
MOL
  186   183     1     0     0
SMALL
resp


@<TRIPOS>ATOM
      1 C1          0.1240    2.6380    6.0250 c3        1 MOL     -0.392195
      2 C2         -0.1610    2.2820    4.5870 c         1 MOL      0.797408
      3 O1          0.7270    2.3400    3.7300 o         1 MOL     -0.679130
      4 H1          1.1900    2.8300    6.1470 hc        1 MOL      0.094375
      5 H2         -0.4390    3.5310    6.2970 hc        1 MOL      0.094375
      6 H3         -0.1710    1.8110    6.6700 hc        1 MOL      0.094375
      7 N1         -1.4330    2.0320    4.3220 n         1 MOL     -0.583058
      8 C3         -2.0080    1.9160    2.9560 c3        1 MOL      0.054507
      9 C4         -2.0960    3.2910    2.3310 c         1 MOL      0.477878
     10 O2         -2.7700    4.1300    2.8920 o         1 MOL     -0.547087
     11 C5         -3.3370    1.1970    3.0820 c3        1 MOL     -0.145953
     12 C6         -3.8780    0.6930    1.7480 c         1 MOL      0.803120
     13 O3         -4.8870   -0.0820    1.8540 o         1 MOL     -0.729927
     14 O4         -3.4350    1.0260    0.6430 o         1 MOL     -0.729927
     15 H4         -2.0600    1.9210    5.1110 hn        1 MOL      0.316246
     16 H5         -1.3460    1.1850    2.4840 h1        1 MOL      0.052696
     17 H6         -4.0800    1.9340    3.4080 hc        1 MOL      0.055193
     18 H7         -3.3120    0.3820    3.8120 hc        1 MOL      0.055193
     19 N2         -1.4070    3.5500    1.2090 n         1 MOL     -0.150677
     20 C7         -1.3730    4.8800    0.5670 c3        1 MOL      0.068685
     21 C8         -2.2090    5.0620   -0.7240 c         1 MOL      0.521724
     22 O5         -1.8920    5.9520   -1.5160 o         1 MOL     -0.521082
     23 C9          0.0620    5.2630    0.2930 c3        1 MOL     -0.182504
     24 C10         1.1600    5.2190    1.5020 c3        1 MOL      0.104865
     25 C11         2.5640    5.7930    1.1790 c3        1 MOL     -0.034742
     26 C12         3.6670    5.3920    2.1470 c3        1 MOL      0.008843
     27 N3          3.6660    6.5320    3.1410 n4        1 MOL     -0.478174
     28 H8         -0.9720    2.7880    0.7150 hn        1 MOL      0.146853
     29 H9         -1.7870    5.5450    1.3270 h1        1 MOL      0.021719
     30 H10         0.1390    6.2540   -0.1610 hc        1 MOL      0.051758
     31 H11         0.3740    4.5980   -0.5120 hc        1 MOL      0.051758
     32 H12         1.2610    4.1830    1.8370 hc        1 MOL     -0.000184
     33 H13         0.7610    5.8050    2.3360 hc        1 MOL     -0.000184
     34 H14         2.5350    6.8530    0.9140 hc        1 MOL      0.022915
     35 H15         2.8600    5.3010    0.2520 hc        1 MOL      0.022915
     36 H16         4.5820    5.3160    1.5510 hx        1 MOL      0.119221
     37 H17         3.4850    4.4230    2.5950 hx        1 MOL      0.119221
     38 H18         4.4200    6.4400    3.8140 hn        1 MOL      0.352407
     39 H19         3.9140    7.4070    2.7120 hn        1 MOL      0.352407
     40 H20         2.8470    6.4620    3.7350 hn        1 MOL      0.352407
     41 N4         -3.2150    4.1410   -0.9310 n         1 MOL     -0.372177
     42 C13        -3.9670    4.1720   -2.1670 c3        1 MOL     -0.061723
     43 C14        -5.3920    3.5820   -2.0150 c         1 MOL      0.472020
     44 O6         -6.3040    3.9160   -2.8140 o         1 MOL     -0.542611
     45 C15        -3.2070    3.4310   -3.2800 c3        1 MOL      0.011321
     46 C16        -2.6690    2.0210   -2.8030 c         1 MOL      0.616226
     47 O7         -3.5470    1.1730   -2.7540 o         1 MOL     -0.714561
     48 O8         -1.4750    1.8170   -2.4400 o         1 MOL     -0.714561
     49 H21        -3.5570    3.5900   -0.1640 hn        1 MOL      0.162974
     50 H22        -4.0950    5.1860   -2.5420 h1        1 MOL      0.090157
     51 H23        -2.3450    4.0220   -3.6150 hc        1 MOL      0.008666
     52 H24        -3.8390    3.3290   -4.1650 hc        1 MOL      0.008666
     53 N5         -5.6710    2.7880   -0.9670 n         1 MOL     -0.245944
     54 C17        -7.0310    2.3430   -0.6180 c3        1 MOL     -0.257083
     55 C18        -7.4780    0.8680   -0.8960 c         1 MOL      0.665210
     56 O9         -8.6270    0.4990   -0.6770 o         1 MOL     -0.592838
     57 H25        -4.9100    2.6340   -0.3260 hn        1 MOL      0.294449
     58 H26        -7.7700    3.0040   -1.0740 h1        1 MOL      0.116932
     59 H27        -7.0660    2.5250    0.4610 h1        1 MOL      0.116932
     60 N6         -6.5650    0.0940   -1.4980 n         1 MOL     -0.441393
     61 C19        -6.9430   -1.3400   -1.8900 c3        1 MOL      0.113088
     62 C20        -7.0240   -2.3000   -0.7520 c         1 MOL      0.397771
     63 O10        -7.7370   -3.2870   -0.8960 o         1 MOL     -0.559514
     64 C21        -6.0370   -1.9230   -2.9280 c3        1 MOL     -0.444700
     65 C22        -4.5040   -2.0760   -2.7170 c         1 MOL      0.853775
     66 O11        -3.8400   -2.6370   -3.6240 o         1 MOL     -0.719442
     67 O12        -4.0100   -1.9450   -1.5740 o         1 MOL     -0.719442
     68 H28        -5.7200    0.4980   -1.8670 hn        1 MOL      0.293032
     69 H29        -7.9390   -1.3960   -2.3370 h1        1 MOL      0.102656
     70 H30        -6.1490   -1.2300   -3.7560 hc        1 MOL      0.124269
     71 H31        -6.3590   -2.9390   -3.1710 hc        1 MOL      0.124269
     72 N7         -6.4970   -1.9630    0.4060 n         1 MOL      0.028234
     73 C23        -6.4600   -2.7200    1.5980 c3        1 MOL     -0.386688
     74 C24        -5.2410   -3.6250    1.7250 c         1 MOL      0.594790
     75 O13        -5.2680   -4.4940    2.5750 o         1 MOL     -0.602602
     76 H32        -6.0660   -1.0570    0.4680 hn        1 MOL      0.123149
     77 H33        -7.2860   -3.3980    1.4080 h1        1 MOL      0.148448
     78 H34        -6.5230   -2.0790    2.4710 h1        1 MOL      0.148448
     79 N8         -4.1590   -3.3840    1.0310 n         1 MOL     -0.031204
     80 C25        -2.8780   -4.1560    1.0720 c3        1 MOL     -0.162474
     81 C26        -1.7020   -3.2050    1.3080 c         1 MOL      0.543832
     82 O14        -1.7870   -2.0490    0.9560 o         1 MOL     -0.560508
     83 C27        -2.5400   -4.9590   -0.1700 c3        1 MOL      0.422423
     84 C28        -3.6360   -5.9350   -0.5830 c3        1 MOL     -0.379719
     85 O15        -2.2460   -4.0970   -1.2880 oh        1 MOL     -0.719911
     86 H35        -4.1740   -2.5860    0.4080 hn        1 MOL     -0.062757
     87 H36        -2.8270   -4.8420    1.9180 h1        1 MOL      0.061037
     88 H37        -1.6100   -5.4810    0.0660 h1        1 MOL      0.023246
     89 H38        -2.9820   -3.4980   -1.4370 ho        1 MOL      0.544264
     90 H39        -3.2850   -6.4940   -1.4510 hc        1 MOL      0.092808
     91 H40        -3.7420   -6.6510    0.2300 hc        1 MOL      0.092808
     92 H41        -4.5090   -5.3460   -0.8700 hc        1 MOL      0.092808
     93 N9         -0.6270   -3.6750    1.8830 n         1 MOL     -0.408930
     94 C29         0.7260   -3.0740    1.9840 c3        1 MOL     -0.003450
     95 C30         1.6250   -3.8130    0.9670 c         1 MOL      0.374107
     96 O16         1.8320   -5.0050    0.9820 o         1 MOL     -0.532124
     97 C31         1.2990   -3.1740    3.4340 c3        1 MOL      0.004667
     98 C32         0.5430   -2.2790    4.3900 c3        1 MOL      0.013868
     99 C33         2.8410   -2.7070    3.3980 c3        1 MOL     -0.115416
    100 C34         1.0010   -2.0630    5.8350 c3        1 MOL     -0.335737
    101 H42        -0.5360   -4.6820    1.8870 hn        1 MOL      0.257458
    102 H43         0.4950   -2.0310    1.7820 h1        1 MOL      0.073530
    103 H44         1.2000   -4.1930    3.8140 hc        1 MOL      0.045225
    104 H45        -0.4540   -2.7080    4.3740 hc        1 MOL      0.043416
    105 H46         0.4120   -1.2680    4.0050 hc        1 MOL      0.043416
    106 H47         3.4420   -3.3850    2.7960 hc        1 MOL      0.028125
    107 H48         2.9610   -1.6640    3.1130 hc        1 MOL      0.028125
    108 H49         3.2510   -2.8210    4.4000 hc        1 MOL      0.028125
    109 H50         1.8860   -1.4470    5.9760 hc        1 MOL      0.085361
    110 H51         0.2250   -1.5820    6.4400 hc        1 MOL      0.085361
    111 H52         1.2960   -3.0350    6.2270 hc        1 MOL      0.085361
    112 N10         2.1250   -3.0730   -0.0090 n         1 MOL      0.222846
    113 C35         3.1080   -3.4940   -1.0060 c3        1 MOL     -0.487166
    114 C36         4.4410   -2.8890   -0.6240 c         1 MOL      0.641563
    115 O17         4.7240   -2.5600    0.5340 o         1 MOL     -0.477745
    116 C37         2.6570   -3.0810   -2.4330 c3        1 MOL      0.350181
    117 C38         1.3900   -3.7240   -2.8910 c3        1 MOL     -0.374648
    118 O18         2.3940   -1.6860   -2.4590 oh        1 MOL     -0.661477
    119 H53         1.6690   -2.1910   -0.2000 hn        1 MOL     -0.008212
    120 H54         3.2120   -4.5740   -0.8860 h1        1 MOL      0.185874
    121 H55         3.4430   -3.2930   -3.1460 h1        1 MOL      0.042440
    122 H56         1.5490   -1.4860   -2.0450 ho        1 MOL      0.433668
    123 H57         1.4220   -4.8040   -2.7920 hc        1 MOL      0.110038
    124 H58         0.5510   -3.3180   -2.3270 hc        1 MOL      0.110038
    125 H59         1.2440   -3.3900   -3.9170 hc        1 MOL      0.110038
    126 N11         5.4410   -2.7510   -1.5500 n         1 MOL     -0.464895
    127 C39         6.8180   -2.4870   -1.2020 c3        1 MOL      0.121733
    128 C40         7.1050   -1.0110   -0.8660 c         1 MOL      0.331266
    129 O19         7.8560   -0.7600    0.0510 o         1 MOL     -0.450534
    130 C41         7.7090   -2.8430   -2.4590 c3        1 MOL      0.428420
    131 C42         9.1840   -2.7210   -2.1350 c3        1 MOL     -0.524669
    132 O20         7.4990   -4.1470   -2.8290 oh        1 MOL     -0.635978
    133 H60         5.1250   -2.7760   -2.5120 hn        1 MOL      0.236098
    134 H61         7.1520   -3.0280   -0.3200 h1        1 MOL      0.116457
    135 H62         7.5210   -2.2360   -3.3440 h1        1 MOL     -0.053067
    136 H63         8.0230   -4.2440   -3.6240 ho        1 MOL      0.410269
    137 H64         9.8030   -2.6210   -3.0260 hc        1 MOL      0.135645
    138 H65         9.3950   -1.8320   -1.5480 hc        1 MOL      0.135645
    139 H66         9.4400   -3.6460   -1.6230 hc        1 MOL      0.135645
    140 N12         6.4450   -0.0780   -1.6940 n         1 MOL     -0.337338
    141 C43         6.3650    1.3920   -1.4710 c3        1 MOL     -0.131001
    142 C44         5.5570    1.7610   -0.2090 c         1 MOL      0.556924
    143 O21         5.5650    2.9260    0.1730 o         1 MOL     -0.568680
    144 C45         5.8160    2.1010   -2.7240 c3        1 MOL     -0.022624
    145 C46         4.3370    1.8910   -3.1890 c3        1 MOL      0.035011
    146 C47         4.1140    2.1240   -4.6510 c3        1 MOL     -0.116374
    147 C48         4.5920    3.5640   -5.0110 c3        1 MOL      0.009950
    148 N13         4.7490    3.7430   -6.4580 n4        1 MOL     -0.256599
    149 H67         5.9200   -0.4440   -2.4760 hn        1 MOL      0.265023
    150 H68         7.4030    1.6350   -1.2510 h1        1 MOL      0.153287
    151 H69         6.4680    1.6680   -3.4710 hc        1 MOL     -0.008168
    152 H70         5.9740    3.1560   -2.5350 hc        1 MOL     -0.008168
    153 H71         3.7060    2.4390   -2.4910 hc        1 MOL      0.049304
    154 H72         4.0790    0.8420   -3.0950 hc        1 MOL      0.049304
    155 H73         3.0410    2.0420   -4.8370 hc        1 MOL      0.064876
    156 H74         4.6260    1.3650   -5.2320 hc        1 MOL      0.064876
    157 H75         5.5350    3.7630   -4.5110 hx        1 MOL      0.105728
    158 H76         3.9300    4.3330   -4.6100 hx        1 MOL      0.105728
    159 H77         5.1500    4.5950   -6.8220 hn        1 MOL      0.299450
    160 H78         5.4430    3.0630   -6.7260 hn        1 MOL      0.299450
    161 H79         3.9460    3.3870   -6.9590 hn        1 MOL      0.299450
    162 N14         5.0270    0.7190    0.4830 n         1 MOL     -0.221502
    163 C49         4.1940    0.8930    1.7040 c3        1 MOL      0.042318
    164 C50         4.8360    0.2780    2.9760 c         1 MOL      0.309816
    165 O22         4.6910    0.9030    3.9930 o         1 MOL     -0.543752
    166 C51         2.8020    0.1660    1.4690 c3        1 MOL      0.157514
    167 C52         2.0910    0.9400    0.3150 c3        1 MOL     -0.102632
    168 C53         0.6800    0.3400   -0.0550 c         1 MOL      0.677068
    169 O23         0.5790   -0.7170   -0.6950 o         1 MOL     -0.693963
    170 O24        -0.3370    1.0100    0.2680 o         1 MOL     -0.693963
    171 H80         5.1030   -0.2360    0.1640 hn        1 MOL      0.016206
    172 H81         4.0250    1.9580    1.8610 h1        1 MOL      0.047344
    173 H82         2.1720    0.2430    2.3510 hc        1 MOL      0.054467
    174 H83         2.9360   -0.8590    1.1450 hc        1 MOL      0.054467
    175 H84         2.6810    0.8830   -0.6010 hc        1 MOL      0.017344
    176 H85         2.1020    1.9950    0.5580 hc        1 MOL      0.017344
    177 N15         5.4180   -0.8970    2.9610 n         1 MOL      0.030781
    178 C54         6.0880   -1.6140    4.0000 c3        1 MOL     -0.174659
    179 H86         5.6980   -1.2980    4.9680 h1        1 MOL      0.078805
    180 H87         5.9190   -2.6830    3.8720 h1        1 MOL      0.078805
    181 H88         7.1570   -1.4070    3.9550 h1        1 MOL      0.078805
    182 H89         5.4530   -1.1480    1.9810 hn        1 MOL      0.094593
    183 Ca1        -2.1020   -0.3330   -0.9710 Ca        1 MOL      1.703983
    184 O25        -1.2600   -1.8580   -3.1700 oh        1 MOL     -0.989576
    185 H90        -2.0240   -2.2550   -3.5890 ho        1 MOL      0.447963
    186 H91        -0.5590   -1.9480   -3.8160 ho        1 MOL      0.447963
@<TRIPOS>BOND
     1    1    2 1   
     2    1    4 1   
     3    1    5 1   
     4    1    6 1   
     5    2    3 2   
     6    2    7 1   
     7    7    8 1   
     8    7   15 1   
     9    8    9 1   
    10    8   11 1   
    11    8   16 1   
    12    9   10 2   
    13    9   19 1   
    14   11   12 1   
    15   11   17 1   
    16   11   18 1   
    17   12   13 1   
    18   12   14 1   
    19   19   20 1   
    20   19   28 1   
    21   20   21 1   
    22   20   23 1   
    23   20   29 1   
    24   21   22 2   
    25   21   41 1   
    26   23   24 1   
    27   23   30 1   
    28   23   31 1   
    29   24   25 1   
    30   24   32 1   
    31   24   33 1   
    32   25   26 1   
    33   25   34 1   
    34   25   35 1   
    35   26   27 1   
    36   26   36 1   
    37   26   37 1   
    38   27   38 1   
    39   27   39 1   
    40   27   40 1   
    41   41   42 1   
    42   41   49 1   
    43   42   43 1   
    44   42   45 1   
    45   42   50 1   
    46   43   44 2   
    47   43   53 1   
    48   45   46 1   
    49   45   51 1   
    50   45   52 1   
    51   46   47 1   
    52   46   48 1   
    53   53   54 1   
    54   53   57 1   
    55   54   55 1   
    56   54   58 1   
    57   54   59 1   
    58   55   56 2   
    59   55   60 1   
    60   60   61 1   
    61   60   68 1   
    62   61   62 1   
    63   61   64 1   
    64   61   69 1   
    65   62   63 2   
    66   62   72 1   
    67   64   65 1   
    68   64   70 1   
    69   64   71 1   
    70   65   66 1   
    71   65   67 1   
    72   72   73 1   
    73   72   76 1   
    74   73   74 1   
    75   73   77 1   
    76   73   78 1   
    77   74   75 2   
    78   74   79 1   
    79   79   80 1   
    80   79   86 1   
    81   80   81 1   
    82   80   83 1   
    83   80   87 1   
    84   81   82 2   
    85   81   93 1   
    86   83   84 1   
    87   83   85 1   
    88   83   88 1   
    89   84   90 1   
    90   84   91 1   
    91   84   92 1   
    92   85   89 1   
    93   93   94 1   
    94   93  101 1   
    95   94   95 1   
    96   94   97 1   
    97   94  102 1   
    98   95   96 2   
    99   95  112 1   
   100   97   98 1   
   101   97   99 1   
   102   97  103 1   
   103   98  100 1   
   104   98  104 1   
   105   98  105 1   
   106   99  106 1   
   107   99  107 1   
   108   99  108 1   
   109  100  109 1   
   110  100  110 1   
   111  100  111 1   
   112  112  113 1   
   113  112  119 1   
   114  113  114 1   
   115  113  116 1   
   116  113  120 1   
   117  114  115 2   
   118  114  126 1   
   119  116  117 1   
   120  116  118 1   
   121  116  121 1   
   122  117  123 1   
   123  117  124 1   
   124  117  125 1   
   125  118  122 1   
   126  126  127 1   
   127  126  133 1   
   128  127  128 1   
   129  127  130 1   
   130  127  134 1   
   131  128  129 2   
   132  128  140 1   
   133  130  131 1   
   134  130  132 1   
   135  130  135 1   
   136  131  137 1   
   137  131  138 1   
   138  131  139 1   
   139  132  136 1   
   140  140  141 1   
   141  140  149 1   
   142  141  142 1   
   143  141  144 1   
   144  141  150 1   
   145  142  143 2   
   146  142  162 1   
   147  144  145 1   
   148  144  151 1   
   149  144  152 1   
   150  145  146 1   
   151  145  153 1   
   152  145  154 1   
   153  146  147 1   
   154  146  155 1   
   155  146  156 1   
   156  147  148 1   
   157  147  157 1   
   158  147  158 1   
   159  148  159 1   
   160  148  160 1   
   161  148  161 1   
   162  162  163 1   
   163  162  171 1   
   164  163  164 1   
   165  163  166 1   
   166  163  172 1   
   167  164  165 2   
   168  164  177 1   
   169  166  167 1   
   170  166  173 1   
   171  166  174 1   
   172  167  168 1   
   173  167  175 1   
   174  167  176 1   
   175  168  169 1   
   176  168  170 1   
   177  177  178 1   
   178  177  182 1   
   179  178  179 1   
   180  178  180 1   
   181  178  181 1   
   182  184  185 1   
   183  184  186 1   
@<TRIPOS>SUBSTRUCTURE
     1 MOL         1 TEMP              0 ****  ****    0 ROOT
