@<TRIPOS>MOLECULE
MOL
  189   185     1     0     0
SMALL
resp


@<TRIPOS>ATOM
      1 C1          0.0710   -2.6580    6.2600 c3        1 MOL     -0.376780
      2 C2          0.8570   -2.3980    4.9760 c         1 MOL      0.677029
      3 O1          0.9030   -1.2870    4.4200 o         1 MOL     -0.581324
      4 H1         -0.9280   -3.0130    6.0080 hc        1 MOL      0.102253
      5 H2          0.5850   -3.4140    6.8540 hc        1 MOL      0.102253
      6 H3         -0.0050   -1.7350    6.8340 hc        1 MOL      0.102253
      7 N1          1.5810   -3.4080    4.5140 n         1 MOL     -0.535477
      8 C3          2.1640   -3.3340    3.1390 c3        1 MOL      0.297373
      9 C4          2.1900   -4.7200    2.3720 c         1 MOL      0.410356
     10 O2          2.3080   -5.8210    2.9110 o         1 MOL     -0.564435
     11 C5          3.5380   -2.7730    3.1720 c3        1 MOL     -0.269694
     12 C6          4.1930   -2.7450    1.7880 c         1 MOL      0.701823
     13 O3          5.0520   -3.6310    1.4630 o         1 MOL     -0.681001
     14 O4          3.9240   -1.7770    1.0730 o         1 MOL     -0.681001
     15 H4          1.4500   -4.3210    4.9340 hn        1 MOL      0.287597
     16 H5          1.5080   -2.7330    2.5180 h1        1 MOL     -0.081346
     17 H6          4.1350   -3.4690    3.7740 hc        1 MOL      0.036357
     18 H7          3.5390   -1.8230    3.6860 hc        1 MOL      0.036357
     19 N2          2.0950   -4.5480    1.0440 n         1 MOL     -0.089657
     20 C7          1.9380   -5.7060    0.1100 c3        1 MOL     -0.224159
     21 C8          2.8490   -5.5660   -1.1010 c         1 MOL      0.602836
     22 O5          2.8730   -6.4720   -1.8890 o         1 MOL     -0.576344
     23 C9          0.4630   -5.9940   -0.2700 c3        1 MOL      0.225230
     24 C10        -0.1470   -4.8480   -1.1520 c3        1 MOL      0.050136
     25 C11        -0.4710   -6.3370    0.8720 c3        1 MOL     -0.281474
     26 C12        -1.4160   -5.3090   -1.9250 c3        1 MOL     -0.244742
     27 H8          1.9520   -3.6160    0.6900 hn        1 MOL      0.219054
     28 H9          2.2080   -6.6250    0.6290 h1        1 MOL      0.109015
     29 H10         0.5560   -6.8630   -0.9290 hc        1 MOL     -0.028500
     30 H11         0.5670   -4.4390   -1.8560 hc        1 MOL      0.030393
     31 H12        -0.3610   -4.0690   -0.4190 hc        1 MOL      0.030393
     32 H13        -1.3910   -6.7350    0.4320 hc        1 MOL      0.052933
     33 H14        -0.1560   -7.1890    1.4590 hc        1 MOL      0.052933
     34 H15        -0.5660   -5.4930    1.5530 hc        1 MOL      0.052933
     35 H16        -2.2530   -4.6360   -1.7460 hc        1 MOL      0.059565
     36 H17        -1.1610   -5.3820   -2.9830 hc        1 MOL      0.059565
     37 H18        -1.7210   -6.3100   -1.6280 hc        1 MOL      0.059565
     38 N3          3.6420   -4.4450   -1.2060 n         1 MOL     -0.417756
     39 C13         4.4420   -4.1500   -2.3950 c3        1 MOL      0.192252
     40 C14         5.7030   -3.2880   -2.1700 c         1 MOL      0.384332
     41 O6          6.5600   -3.2610   -3.0430 o         1 MOL     -0.577180
     42 C15         3.5790   -3.3870   -3.3600 c3        1 MOL     -0.316023
     43 C16         2.9610   -2.0030   -2.9190 c         1 MOL      0.776648
     44 O7          3.3350   -1.4490   -1.8790 o         1 MOL     -0.690408
     45 O8          2.0360   -1.5060   -3.5470 o         1 MOL     -0.690408
     46 H19         3.5640   -3.7660   -0.4560 hn        1 MOL      0.117332
     47 H20         4.8770   -5.0400   -2.8540 h1        1 MOL      0.056498
     48 H21         2.7770   -4.0880   -3.5830 hc        1 MOL      0.075951
     49 H22         4.1000   -3.2200   -4.3000 hc        1 MOL      0.075951
     50 N4          5.8080   -2.4020   -1.1260 n         1 MOL     -0.066408
     51 C17         7.1230   -1.8180   -0.5670 c3        1 MOL     -0.236889
     52 C18         7.3700   -0.3520   -0.8610 c         1 MOL      0.554742
     53 O9          8.3860    0.2360   -0.5290 o         1 MOL     -0.640340
     54 H23         4.9630   -2.2000   -0.6090 hn        1 MOL      0.161815
     55 H24         7.9150   -2.5200   -0.8380 h1        1 MOL      0.109695
     56 H25         7.0610   -1.9130    0.5180 h1        1 MOL      0.109695
     57 N5          6.5640    0.2910   -1.6500 n         1 MOL     -0.253211
     58 C19         6.8630    1.6600   -2.0960 c3        1 MOL      0.030434
     59 C20         7.0560    2.6700   -1.0120 c         1 MOL      0.507970
     60 O10         7.5530    3.7600   -1.3070 o         1 MOL     -0.576907
     61 C21         5.6960    2.1650   -2.9970 c3        1 MOL     -0.464139
     62 C22         4.2960    2.1190   -2.4030 c         1 MOL      0.833177
     63 O11         4.0600    1.7350   -1.2510 o         1 MOL     -0.700950
     64 O12         3.4260    2.3530   -3.2630 o         1 MOL     -0.700950
     65 H26         5.7490   -0.2420   -1.9290 hn        1 MOL      0.196400
     66 H27         7.7060    1.5990   -2.7820 h1        1 MOL      0.090768
     67 H28         5.6860    1.4690   -3.8410 hc        1 MOL      0.129145
     68 H29         6.0180    3.1580   -3.3070 hc        1 MOL      0.129145
     69 N6          6.6680    2.4530    0.2530 n         1 MOL     -0.238931
     70 C23         6.6540    3.4690    1.3820 c3        1 MOL     -0.367020
     71 C24         5.4860    4.3870    1.3990 c         1 MOL      0.542713
     72 O13         5.5080    5.5340    1.9150 o         1 MOL     -0.569600
     73 H30         6.1640    1.5990    0.4220 hn        1 MOL      0.278501
     74 H31         7.5010    4.1410    1.2100 h1        1 MOL      0.158136
     75 H32         6.7900    2.9940    2.3540 h1        1 MOL      0.158136
     76 N7          4.3350    3.8970    0.8810 n         1 MOL     -0.221615
     77 C25         3.0500    4.5950    1.0060 c3        1 MOL     -0.163377
     78 C26         1.7930    3.6370    1.1860 c         1 MOL      0.395970
     79 O14         1.7400    2.5950    0.5890 o         1 MOL     -0.455227
     80 C27         2.6930    5.4050   -0.2350 c3        1 MOL      0.265299
     81 C28         3.8340    6.2990   -0.6970 c3        1 MOL     -0.357334
     82 C29         3.3300    7.1070   -1.9600 c         1 MOL      0.566946
     83 N8          3.0830    6.4490   -3.0320 n         1 MOL     -0.684915
     84 O15         3.0530    8.3360   -1.8360 o         1 MOL     -0.593804
     85 H33         4.3060    3.0990    0.2670 hn        1 MOL      0.182061
     86 H34         3.0510    5.2910    1.8530 h1        1 MOL      0.074649
     87 H35         1.8730    6.0970   -0.0360 hc        1 MOL     -0.007151
     88 H36         2.4120    4.6860   -1.0040 hc        1 MOL     -0.007151
     89 H37         4.6830    5.7370   -1.0980 hc        1 MOL      0.127508
     90 H38         4.1840    6.8610    0.1660 hc        1 MOL      0.127508
     91 H39         3.4300    5.5070   -3.1610 hn        1 MOL      0.346216
     92 H40         2.6190    6.9290   -3.7980 hn        1 MOL      0.346216
     93 N9          0.8010    3.9550    1.9950 n         1 MOL     -0.364570
     94 C30        -0.3990    3.1840    2.2200 c3        1 MOL     -0.219231
     95 C31        -1.3020    3.4330    0.9610 c         1 MOL      0.470500
     96 O16        -1.9000    4.4710    0.7920 o         1 MOL     -0.570375
     97 C32        -1.1020    3.4270    3.5700 c3        1 MOL      0.593382
     98 C33        -1.9860    2.2970    3.8570 c3        1 MOL     -0.342019
     99 C34        -0.1040    3.5640    4.6930 c3        1 MOL     -0.342019
    100 H41         0.8610    4.8120    2.5230 hn        1 MOL      0.262875
    101 H42        -0.2270    2.1040    2.1640 h1        1 MOL      0.227313
    102 H43        -1.7350    4.3150    3.5020 hc        1 MOL     -0.103933
    103 H44        -2.7560    2.2380    3.0860 hc        1 MOL      0.046488
    104 H45        -1.4290    1.3680    3.7470 hc        1 MOL      0.046488
    105 H46        -2.5110    2.5790    4.7700 hc        1 MOL      0.046488
    106 H47        -0.6440    3.4920    5.6430 hc        1 MOL      0.046488
    107 H48         0.6880    2.8520    4.4780 hc        1 MOL      0.046488
    108 H49         0.2330    4.5970    4.6240 hc        1 MOL      0.046488
    109 N10        -1.3550    2.4280    0.1090 n         1 MOL     -0.149814
    110 C35        -2.4890    2.1700   -0.8680 c3        1 MOL     -0.037726
    111 C36        -3.8910    1.9310   -0.2300 c         1 MOL      0.415622
    112 O17        -4.0910    1.5020    0.9030 o         1 MOL     -0.319835
    113 C37        -2.0290    1.0030   -1.6980 c3        1 MOL      0.178491
    114 C38        -2.8530    0.6760   -2.9060 c         1 MOL      0.396702
    115 N11        -2.4380   -0.3040   -3.6770 n         1 MOL     -0.587195
    116 O18        -3.7870    1.4040   -3.2660 o         1 MOL     -0.561115
    117 H50        -0.8170    1.6030    0.3220 hn        1 MOL      0.102978
    118 H51        -2.5170    3.0550   -1.5160 h1        1 MOL      0.065867
    119 H52        -2.1420    0.1460   -1.0270 hc        1 MOL     -0.024812
    120 H53        -0.9560    1.0820   -1.8240 hc        1 MOL     -0.024812
    121 H54        -1.5870   -0.8030   -3.4450 hn        1 MOL      0.340190
    122 H55        -2.9500   -0.5620   -4.5080 hn        1 MOL      0.340190
    123 N12        -4.9900    2.3340   -0.8960 n         1 MOL     -0.522657
    124 C39        -6.3410    2.0780   -0.4040 c3        1 MOL      0.253108
    125 C40        -6.5720    0.5760   -0.1540 c         1 MOL      0.531675
    126 O19        -7.1740    0.2030    0.8780 o         1 MOL     -0.533430
    127 C41        -7.3090    2.7880   -1.3400 c3        1 MOL     -0.177384
    128 C42        -8.7460    2.3100   -1.2530 ca        1 MOL     -0.006857
    129 C43        -9.5350    2.5900   -0.0490 ca        1 MOL     -0.135582
    130 C44        -9.2880    1.5770   -2.2910 ca        1 MOL     -0.135582
    131 C45       -10.8080    2.0590   -0.0120 ca        1 MOL     -0.295286
    132 C46       -10.6220    1.1200   -2.2160 ca        1 MOL     -0.295286
    133 C47       -11.4150    1.3640   -1.0490 ca        1 MOL      0.400632
    134 O20       -12.7330    1.0980   -1.0380 oh        1 MOL     -0.515085
    135 H56        -4.8570    2.5490   -1.8720 hn        1 MOL      0.278280
    136 H57        -6.4690    2.5820    0.5500 h1        1 MOL      0.033782
    137 H58        -6.9530    2.6080   -2.3590 hc        1 MOL      0.071043
    138 H59        -7.3790    3.8660   -1.1830 hc        1 MOL      0.071043
    139 H60        -9.1540    3.1630    0.7840 ha        1 MOL      0.143376
    140 H61        -8.6190    1.4210   -3.1310 ha        1 MOL      0.143376
    141 H62       -11.4330    2.2100    0.8590 ha        1 MOL      0.139048
    142 H63       -11.0210    0.5850   -3.0670 ha        1 MOL      0.139048
    143 H64       -12.9810    0.7290   -1.8810 ho        1 MOL      0.358909
    144 N13        -5.9000   -0.2840   -0.9780 n         1 MOL     -0.394880
    145 C48        -5.8610   -1.7420   -0.8010 c3        1 MOL     -0.018803
    146 C49        -5.2330   -2.2050    0.5160 c         1 MOL      0.348703
    147 O21        -5.3950   -3.3900    0.8470 o         1 MOL     -0.546398
    148 C50        -5.0550   -2.3270   -1.9430 c3        1 MOL      0.149909
    149 C51        -5.5980   -2.0550   -3.3510 c3        1 MOL     -0.253840
    150 C52        -4.7650   -2.7310   -4.4520 c         1 MOL      0.686452
    151 O22        -3.9220   -2.0930   -5.1470 o         1 MOL     -0.701562
    152 O23        -4.8510   -3.9690   -4.5470 o         1 MOL     -0.701562
    153 H65        -5.3710    0.0330   -1.7780 hn        1 MOL      0.284371
    154 H66        -6.8710   -2.1430   -0.9130 h1        1 MOL      0.082320
    155 H67        -5.0500   -3.3970   -1.7620 hc        1 MOL      0.022477
    156 H68        -4.0250   -2.0120   -1.8350 hc        1 MOL      0.022477
    157 H69        -5.7220   -0.9780   -3.4810 hc        1 MOL      0.005636
    158 H70        -6.6120   -2.4380   -3.2180 hc        1 MOL      0.005636
    159 N14        -4.4710   -1.3230    1.1770 n         1 MOL      0.039865
    160 C53        -3.6970   -1.5760    2.4320 c3        1 MOL     -0.021200
    161 C54        -4.3720   -0.8060    3.6160 c         1 MOL      0.432521
    162 O24        -4.6610   -1.4280    4.6480 o         1 MOL     -0.572062
    163 C55        -2.2540   -1.0960    2.1650 c3        1 MOL      0.045897
    164 C56        -1.4340   -1.8990    1.1960 c3        1 MOL     -0.151567
    165 C57        -0.0850   -1.3260    0.8510 c         1 MOL      0.676721
    166 O25         0.8290   -2.0690    0.3890 o         1 MOL     -0.643685
    167 O26         0.0050   -0.1110    0.5560 o         1 MOL     -0.643685
    168 H71        -4.4750   -0.3920    0.7950 hn        1 MOL     -0.071470
    169 H72        -3.6420   -2.6450    2.6330 h1        1 MOL      0.066609
    170 H73        -1.7450   -0.9870    3.1230 hc        1 MOL      0.000470
    171 H74        -2.3280   -0.1300    1.6550 hc        1 MOL      0.000470
    172 H75        -1.9110   -2.1070    0.2330 hc        1 MOL      0.034107
    173 H76        -1.1930   -2.8710    1.6380 hc        1 MOL      0.034107
    174 N15        -4.7400    0.4740    3.5550 n         1 MOL     -0.039042
    175 C58        -5.6050    1.1790    4.4850 c3        1 MOL     -0.341257
    176 H77        -6.4080    0.5160    4.8080 h1        1 MOL      0.115814
    177 H78        -5.0250    1.4960    5.3510 h1        1 MOL      0.115814
    178 H79        -6.0320    2.0530    3.9930 h1        1 MOL      0.115814
    179 H80        -4.5330    0.9280    2.6680 hn        1 MOL      0.094182
    180 Ca1         2.4930    0.0890    0.0760 Ca        1 MOL      1.634921
    181 O27         1.9490    0.3880    2.7880 oh        1 MOL     -0.820841
    182 H81         2.4230    0.9670    3.3840 ho        1 MOL      0.388350
    183 H82         1.5910   -0.3000    3.3510 ho        1 MOL      0.388350
    184 O28         1.4370    0.6740   -2.2340 oh        1 MOL     -0.820841
    185 H83         1.9770    1.3590   -2.6250 ho        1 MOL      0.388350
    186 H84         1.6440   -0.1190   -2.7290 ho        1 MOL      0.388350
    187 O29         4.4720    1.1300    1.5350 oh        1 MOL     -0.820841
    188 H85         4.0650    1.6930    2.2020 ho        1 MOL      0.388350
    189 H86         4.9410    0.4600    2.0250 ho        1 MOL      0.388350
@<TRIPOS>BOND
     1    1    2 1   
     2    1    4 1   
     3    1    5 1   
     4    1    6 1   
     5    2    3 2   
     6    2    7 1   
     7    7    8 1   
     8    7   15 1   
     9    8    9 1   
    10    8   11 1   
    11    8   16 1   
    12    9   10 2   
    13    9   19 1   
    14   11   12 1   
    15   11   17 1   
    16   11   18 1   
    17   12   13 1   
    18   12   14 1   
    19   19   20 1   
    20   19   27 1   
    21   20   21 1   
    22   20   23 1   
    23   20   28 1   
    24   21   22 2   
    25   21   38 1   
    26   23   24 1   
    27   23   25 1   
    28   23   29 1   
    29   24   26 1   
    30   24   30 1   
    31   24   31 1   
    32   25   32 1   
    33   25   33 1   
    34   25   34 1   
    35   26   35 1   
    36   26   36 1   
    37   26   37 1   
    38   38   39 1   
    39   38   46 1   
    40   39   40 1   
    41   39   42 1   
    42   39   47 1   
    43   40   41 2   
    44   40   50 1   
    45   42   43 1   
    46   42   48 1   
    47   42   49 1   
    48   43   44 1   
    49   43   45 1   
    50   50   51 1   
    51   50   54 1   
    52   51   52 1   
    53   51   55 1   
    54   51   56 1   
    55   52   53 2   
    56   52   57 1   
    57   57   58 1   
    58   57   65 1   
    59   58   59 1   
    60   58   61 1   
    61   58   66 1   
    62   59   60 2   
    63   59   69 1   
    64   61   62 1   
    65   61   67 1   
    66   61   68 1   
    67   62   63 1   
    68   62   64 1   
    69   69   70 1   
    70   69   73 1   
    71   70   71 1   
    72   70   74 1   
    73   70   75 1   
    74   71   72 2   
    75   71   76 1   
    76   76   77 1   
    77   76   85 1   
    78   77   78 1   
    79   77   80 1   
    80   77   86 1   
    81   78   79 2   
    82   78   93 1   
    83   80   81 1   
    84   80   87 1   
    85   80   88 1   
    86   81   82 1   
    87   81   89 1   
    88   81   90 1   
    89   82   83 1   
    90   82   84 2   
    91   83   91 1   
    92   83   92 1   
    93   93   94 1   
    94   93  100 1   
    95   94   95 1   
    96   94   97 1   
    97   94  101 1   
    98   95   96 2   
    99   95  109 1   
   100   97   98 1   
   101   97   99 1   
   102   97  102 1   
   103   98  103 1   
   104   98  104 1   
   105   98  105 1   
   106   99  106 1   
   107   99  107 1   
   108   99  108 1   
   109  109  110 1   
   110  109  117 1   
   111  110  111 1   
   112  110  113 1   
   113  110  118 1   
   114  111  112 2   
   115  111  123 1   
   116  113  114 1   
   117  113  119 1   
   118  113  120 1   
   119  114  115 1   
   120  114  116 2   
   121  115  121 1   
   122  115  122 1   
   123  123  124 1   
   124  123  135 1   
   125  124  125 1   
   126  124  127 1   
   127  124  136 1   
   128  125  126 2   
   129  125  144 1   
   130  127  128 1   
   131  127  137 1   
   132  127  138 1   
   133  128  129 ar  
   134  128  130 ar  
   135  129  131 ar  
   136  129  139 1   
   137  130  132 ar  
   138  130  140 1   
   139  131  133 ar  
   140  131  141 1   
   141  132  133 ar  
   142  132  142 1   
   143  133  134 1   
   144  134  143 1   
   145  144  145 1   
   146  144  153 1   
   147  145  146 1   
   148  145  148 1   
   149  145  154 1   
   150  146  147 2   
   151  146  159 1   
   152  148  149 1   
   153  148  155 1   
   154  148  156 1   
   155  149  150 1   
   156  149  157 1   
   157  149  158 1   
   158  150  151 1   
   159  150  152 1   
   160  159  160 1   
   161  159  168 1   
   162  160  161 1   
   163  160  163 1   
   164  160  169 1   
   165  161  162 2   
   166  161  174 1   
   167  163  164 1   
   168  163  170 1   
   169  163  171 1   
   170  164  165 1   
   171  164  172 1   
   172  164  173 1   
   173  165  166 1   
   174  165  167 1   
   175  174  175 1   
   176  174  179 1   
   177  175  176 1   
   178  175  177 1   
   179  175  178 1   
   180  181  182 1   
   181  181  183 1   
   182  184  185 1   
   183  184  186 1   
   184  187  188 1   
   185  187  189 1   
@<TRIPOS>SUBSTRUCTURE
     1 MOL         1 TEMP              0 ****  ****    0 ROOT
