@<TRIPOS>MOLECULE
MOL
  186   183     1     0     0
SMALL
resp


@<TRIPOS>ATOM
      1 C1          0.8320    3.6470   -4.5600 c3        1 MOL     -0.337840
      2 C2          1.3440    3.0370   -3.2100 c         1 MOL      0.594326
      3 O1          0.8080    3.3330   -2.1410 o         1 MOL     -0.530537
      4 H1          0.7190    4.7260   -4.4500 hc        1 MOL      0.088974
      5 H2          1.5510    3.4360   -5.3510 hc        1 MOL      0.088974
      6 H3         -0.1320    3.2060   -4.8160 hc        1 MOL      0.088974
      7 N1          2.4310    2.2310   -3.2650 n         1 MOL     -0.449392
      8 C3          3.1080    1.6320   -2.0450 c3        1 MOL      0.222507
      9 C4          4.0070    2.6770   -1.3110 c         1 MOL      0.276438
     10 O2          5.1860    2.5280   -1.1730 o         1 MOL     -0.463813
     11 C5          3.9240    0.3920   -2.4750 c3        1 MOL     -0.075842
     12 C6          4.3230   -0.4760   -1.2150 c         1 MOL      0.697386
     13 O3          3.6110   -0.4080   -0.1780 o         1 MOL     -0.673118
     14 O4          5.3360   -1.2080   -1.3930 o         1 MOL     -0.673118
     15 H4          2.8800    2.2670   -4.1700 hn        1 MOL      0.260561
     16 H5          2.3960    1.3740   -1.2590 h1        1 MOL      0.094595
     17 H6          4.8010    0.7370   -3.0330 hc        1 MOL      0.004132
     18 H7          3.2620   -0.1880   -3.1240 hc        1 MOL      0.004132
     19 N2          3.3670    3.7800   -0.8920 n         1 MOL     -0.045147
     20 C7          4.1150    4.8620   -0.2670 c3        1 MOL      0.010064
     21 C8          4.3870    4.7250    1.2350 c         1 MOL      0.340678
     22 O5          5.2820    5.3920    1.8270 o         1 MOL     -0.553270
     23 C9          3.3760    6.1870   -0.6210 c3        1 MOL     -0.225863
     24 C10         3.6500    6.4890   -2.1260 c3        1 MOL      0.038291
     25 C11         4.9920    7.2020   -2.3490 c3        1 MOL     -0.045753
     26 C12         4.9240    8.6400   -2.0160 c3        1 MOL      0.056525
     27 N3          6.2930    9.2580   -1.9030 n4        1 MOL     -0.317183
     28 H8          2.3910    3.9170   -1.1240 hn        1 MOL      0.162977
     29 H9          5.0640    4.9690   -0.7810 h1        1 MOL      0.101149
     30 H10         3.6460    7.0060    0.0350 hc        1 MOL      0.100433
     31 H11         2.2960    6.1460   -0.4650 hc        1 MOL      0.100433
     32 H12         2.8600    7.1340   -2.5130 hc        1 MOL      0.000447
     33 H13         3.7130    5.5470   -2.6660 hc        1 MOL      0.000447
     34 H14         5.3440    7.1440   -3.3860 hc        1 MOL      0.026740
     35 H15         5.6490    6.6460   -1.6700 hc        1 MOL      0.026740
     36 H16         4.3620    8.8040   -1.0910 hx        1 MOL      0.076712
     37 H17         4.4310    9.1590   -2.8320 hx        1 MOL      0.076712
     38 H18         6.3760   10.1890   -1.5210 hn        1 MOL      0.312247
     39 H19         6.8300    8.6290   -1.3290 hn        1 MOL      0.312247
     40 H20         6.7650    9.3080   -2.8000 hn        1 MOL      0.312247
     41 N4          3.7690    3.7250    1.9240 n         1 MOL     -0.251032
     42 C13         4.2710    3.1220    3.1840 c3        1 MOL      0.051470
     43 C14         5.4400    2.1110    2.9530 c         1 MOL      0.526273
     44 O6          6.2690    2.0140    3.8190 o         1 MOL     -0.552875
     45 C15         3.0850    2.4050    3.8610 c3        1 MOL     -0.172968
     46 C16         2.4600    1.2620    2.9750 c         1 MOL      0.716085
     47 O7          2.4330    0.1860    3.5600 o         1 MOL     -0.656375
     48 O8          2.1820    1.5100    1.7540 o         1 MOL     -0.656375
     49 H21         3.0390    3.1940    1.4650 hn        1 MOL      0.151894
     50 H22         4.7070    3.9390    3.7600 h1        1 MOL      0.060158
     51 H23         2.3330    3.1210    4.1920 hc        1 MOL      0.036881
     52 H24         3.5640    2.0520    4.7740 hc        1 MOL      0.036881
     53 N5          5.4090    1.4150    1.8140 n         1 MOL      0.076046
     54 C17         6.4940    0.5910    1.3290 c3        1 MOL     -0.250486
     55 C18         6.5780   -0.7950    2.0290 c         1 MOL      0.515009
     56 O9          7.0020   -0.9500    3.2110 o         1 MOL     -0.517614
     57 H25         4.6640    1.5500    1.1490 hn        1 MOL     -0.141454
     58 H26         7.4200    1.1580    1.3610 h1        1 MOL      0.110295
     59 H27         6.2850    0.4900    0.2660 h1        1 MOL      0.110295
     60 N6          6.1820   -1.8080    1.2840 n         1 MOL     -0.301572
     61 C19         6.2830   -3.2390    1.7020 c3        1 MOL     -0.076984
     62 C20         6.1050   -4.2630    0.6010 c         1 MOL      0.543825
     63 O10         6.1760   -5.4850    0.8470 o         1 MOL     -0.566073
     64 C21         5.3420   -3.5640    2.9390 c3        1 MOL     -0.197158
     65 C22         3.9970   -3.0890    2.5360 c         1 MOL      0.703536
     66 O11         3.5670   -3.1850    1.3490 o         1 MOL     -0.659358
     67 O12         3.2390   -2.4920    3.3970 o         1 MOL     -0.659358
     68 H28         5.7620   -1.7020    0.3670 hn        1 MOL      0.126929
     69 H29         7.3130   -3.4370    2.0170 h1        1 MOL      0.101881
     70 H30         5.7120   -2.9330    3.7490 hc        1 MOL      0.085613
     71 H31         5.3510   -4.6130    3.2570 hc        1 MOL      0.085613
     72 N7          5.8870   -3.8950   -0.6610 n         1 MOL     -0.436936
     73 C23         5.6560   -4.8830   -1.7470 c3        1 MOL     -0.137666
     74 C24         4.2290   -5.3000   -1.9000 c         1 MOL      0.534798
     75 O13         3.9250   -6.2340   -2.5750 o         1 MOL     -0.575425
     76 H32         5.6750   -2.9380   -0.9240 hn        1 MOL      0.377821
     77 H33         6.2100   -5.8010   -1.5680 h1        1 MOL      0.106436
     78 H34         5.9970   -4.4770   -2.7050 h1        1 MOL      0.106436
     79 N8          3.2710   -4.6370   -1.2360 n         1 MOL     -0.243192
     80 C25         1.8730   -5.1220   -1.1660 c3        1 MOL     -0.142977
     81 C26         0.9020   -3.9380   -1.1040 c         1 MOL      0.447826
     82 O14         1.2800   -2.8850   -0.5320 o         1 MOL     -0.594697
     83 C27         1.7830   -6.0610    0.1100 c3        1 MOL      0.605466
     84 C28         2.6920   -7.2270    0.1760 c3        1 MOL     -0.500002
     85 O15         1.8930   -5.3270    1.2810 oh        1 MOL     -0.656477
     86 H35         3.4290   -3.7560   -0.7500 hn        1 MOL      0.202511
     87 H36         1.5700   -5.7460   -2.0110 h1        1 MOL      0.071394
     88 H37         0.7930   -6.4890    0.0120 h1        1 MOL     -0.077493
     89 H38         2.6260   -4.7240    1.1210 ho        1 MOL      0.375640
     90 H39         3.7280   -6.9000    0.2690 hc        1 MOL      0.124505
     91 H40         2.3260   -7.7420    1.0740 hc        1 MOL      0.124505
     92 H41         2.6210   -7.8470   -0.7250 hc        1 MOL      0.124505
     93 N9         -0.2430   -4.0540   -1.7090 n         1 MOL     -0.365290
     94 C29        -1.1160   -2.8980   -1.9160 c3        1 MOL     -0.001308
     95 C30        -2.5430   -3.1240   -1.5390 c         1 MOL      0.440412
     96 O16        -2.9400   -4.2280   -1.8220 o         1 MOL     -0.562833
     97 C31        -0.8800   -2.2320   -3.3330 c3        1 MOL      0.331329
     98 C32         0.5760   -1.9180   -3.6230 c3        1 MOL      0.233544
     99 C33        -1.8350   -0.9870   -3.4570 c3        1 MOL     -0.352903
    100 C34         0.8320   -0.9950   -4.8490 c3        1 MOL     -0.424511
    101 H42        -0.5160   -4.8640   -2.2400 hn        1 MOL      0.269551
    102 H43        -0.7390   -2.1310   -1.2510 h1        1 MOL      0.113467
    103 H44        -1.1330   -2.9540   -4.1170 hc        1 MOL     -0.084202
    104 H45         1.0880   -2.8830   -3.6750 hc        1 MOL     -0.041341
    105 H46         0.9590   -1.2670   -2.8360 hc        1 MOL     -0.041341
    106 H47        -1.9400   -0.6350   -4.4820 hc        1 MOL      0.048848
    107 H48        -2.8600   -1.3350   -3.2860 hc        1 MOL      0.048848
    108 H49        -1.5850   -0.1690   -2.7910 hc        1 MOL      0.048848
    109 H50         0.2530   -1.3550   -5.6930 hc        1 MOL      0.089917
    110 H51         0.5130    0.0290   -4.6550 hc        1 MOL      0.089917
    111 H52         1.9000   -0.9840   -5.0710 hc        1 MOL      0.089917
    112 N10        -3.2480   -2.2310   -0.8680 n         1 MOL     -0.025211
    113 C35        -4.6250   -2.5330   -0.4470 c3        1 MOL      0.029248
    114 C36        -5.5740   -1.5920   -1.1980 c         1 MOL      0.193855
    115 O17        -5.1990   -0.4770   -1.6520 o         1 MOL     -0.188320
    116 C37        -4.9470   -2.3220    1.0480 c3        1 MOL      0.118349
    117 C38        -4.4050   -3.5400    1.8000 c3        1 MOL     -0.453157
    118 O18        -4.3340   -1.0830    1.3950 oh        1 MOL     -0.414539
    119 H53        -2.7740   -1.3720   -0.6200 hn        1 MOL      0.065296
    120 H54        -4.8690   -3.5400   -0.7750 h1        1 MOL      0.063192
    121 H55        -6.0190   -2.1920    1.1740 h1        1 MOL      0.021364
    122 H56        -4.1610   -1.0970    2.3360 ho        1 MOL      0.378298
    123 H57        -3.3380   -3.7080    1.6290 hc        1 MOL      0.138197
    124 H58        -4.5400   -3.3710    2.8610 hc        1 MOL      0.138197
    125 H59        -5.0200   -4.4160    1.5910 hc        1 MOL      0.138197
    126 N11        -6.8600   -2.0040   -1.3180 n         1 MOL     -0.259681
    127 C39        -7.9360   -1.0790   -1.6810 c3        1 MOL     -0.311638
    128 C40        -7.9520    0.2790   -0.9610 c         1 MOL      0.510714
    129 O19        -8.2830    1.2160   -1.6650 o         1 MOL     -0.497339
    130 C41        -9.3930   -1.6840   -1.6290 c3        1 MOL      0.321659
    131 C42        -9.2970   -2.8700   -2.5980 c3        1 MOL     -0.310776
    132 O20        -9.9570   -2.1390   -0.4220 oh        1 MOL     -0.638983
    133 H60        -7.0830   -2.9390   -1.0340 hn        1 MOL      0.314715
    134 H61        -7.6900   -0.9080   -2.7210 h1        1 MOL      0.167424
    135 H62       -10.1130   -0.9950   -2.0740 h1        1 MOL      0.044276
    136 H63       -10.8330   -2.4580   -0.6530 ho        1 MOL      0.413393
    137 H64        -9.2000   -2.6500   -3.6710 hc        1 MOL      0.083540
    138 H65        -8.6030   -3.6330   -2.2450 hc        1 MOL      0.083540
    139 H66       -10.2980   -3.2940   -2.6690 hc        1 MOL      0.083540
    140 N12        -7.5740    0.3060    0.3060 n         1 MOL     -0.329292
    141 C43        -7.4260    1.5650    1.0780 c3        1 MOL      0.032816
    142 C44        -6.1910    2.3450    0.6360 c         1 MOL      0.432909
    143 O21        -6.2130    3.5570    0.6780 o         1 MOL     -0.548538
    144 C45        -7.2240    1.3480    2.6030 c3        1 MOL     -0.330486
    145 C46        -8.4100    2.0330    3.3940 c3        1 MOL      0.408943
    146 C47        -8.0330    2.2440    4.8950 c3        1 MOL     -0.105888
    147 C48        -9.0440    3.1340    5.5540 c3        1 MOL     -0.143787
    148 N13       -10.3130    2.4330    5.7150 n4        1 MOL     -0.267113
    149 H67        -7.5960   -0.5770    0.7980 hn        1 MOL      0.299012
    150 H68        -8.3180    2.1770    0.9560 h1        1 MOL      0.072924
    151 H69        -6.3110    1.8670    2.8960 hc        1 MOL      0.068987
    152 H70        -7.0520    0.3070    2.8860 hc        1 MOL      0.068987
    153 H71        -9.3290    1.4360    3.3220 hc        1 MOL     -0.067771
    154 H72        -8.5680    3.0030    2.9400 hc        1 MOL     -0.067771
    155 H73        -7.0390    2.6880    4.8950 hc        1 MOL      0.063291
    156 H74        -8.0340    1.2900    5.4330 hc        1 MOL      0.063291
    157 H75        -9.1550    4.1220    5.1070 hx        1 MOL      0.147094
    158 H76        -8.7210    3.3190    6.5840 hx        1 MOL      0.147094
    159 H77       -10.9130    2.6010    4.9140 hn        1 MOL      0.268900
    160 H78       -10.1380    1.4540    5.9000 hn        1 MOL      0.268900
    161 H79       -10.9440    2.6510    6.4860 hn        1 MOL      0.268900
    162 N14        -5.1030    1.7470    0.1660 n         1 MOL      0.082056
    163 C49        -3.8170    2.4660   -0.3990 c3        1 MOL     -0.154993
    164 C50        -4.0630    3.0080   -1.8230 c         1 MOL      0.454874
    165 O22        -3.7440    4.1560   -2.1460 o         1 MOL     -0.539584
    166 C51        -2.5550    1.6490   -0.3060 c3        1 MOL      0.158320
    167 C52        -1.9670    1.4860    1.0740 c3        1 MOL     -0.113939
    168 C53        -0.8900    0.3770    1.2030 c         1 MOL      0.667656
    169 O23        -0.3130   -0.0360    0.2270 o         1 MOL     -0.763433
    170 O24        -0.3520    0.1520    2.3260 o         1 MOL     -0.763433
    171 H80        -5.0990    0.7360    0.0860 hn        1 MOL     -0.152669
    172 H81        -3.6040    3.3680    0.1690 h1        1 MOL      0.088809
    173 H82        -1.7230    1.9670   -0.9370 hc        1 MOL      0.042008
    174 H83        -2.9550    0.6970   -0.6320 hc        1 MOL      0.042008
    175 H84        -2.8270    1.3510    1.7350 hc        1 MOL      0.015712
    176 H85        -1.5680    2.4620    1.3810 hc        1 MOL      0.015712
    177 N15        -4.6860    2.1950   -2.6770 n         1 MOL     -0.158728
    178 C54        -5.3500    2.5910   -3.9490 c3        1 MOL     -0.261625
    179 H86        -5.4520    3.6760   -3.9840 h1        1 MOL      0.110867
    180 H87        -4.7480    2.2560   -4.7940 h1        1 MOL      0.110867
    181 H88        -6.3380    2.1340   -4.0020 h1        1 MOL      0.110867
    182 H89        -4.8820    1.2660   -2.3280 hn        1 MOL      0.117607
    183 Ca1         1.8050   -1.1640    1.5320 Ca        1 MOL      1.755533
    184 O25         0.5880   -3.2490    2.5110 oh        1 MOL     -0.874795
    185 H90         0.3580   -3.4910    3.4030 ho        1 MOL      0.409746
    186 H91         0.9060   -4.0710    2.1220 ho        1 MOL      0.409746
@<TRIPOS>BOND
     1    1    2 1   
     2    1    4 1   
     3    1    5 1   
     4    1    6 1   
     5    2    3 2   
     6    2    7 1   
     7    7    8 1   
     8    7   15 1   
     9    8    9 1   
    10    8   11 1   
    11    8   16 1   
    12    9   10 2   
    13    9   19 1   
    14   11   12 1   
    15   11   17 1   
    16   11   18 1   
    17   12   13 1   
    18   12   14 1   
    19   19   20 1   
    20   19   28 1   
    21   20   21 1   
    22   20   23 1   
    23   20   29 1   
    24   21   22 2   
    25   21   41 1   
    26   23   24 1   
    27   23   30 1   
    28   23   31 1   
    29   24   25 1   
    30   24   32 1   
    31   24   33 1   
    32   25   26 1   
    33   25   34 1   
    34   25   35 1   
    35   26   27 1   
    36   26   36 1   
    37   26   37 1   
    38   27   38 1   
    39   27   39 1   
    40   27   40 1   
    41   41   42 1   
    42   41   49 1   
    43   42   43 1   
    44   42   45 1   
    45   42   50 1   
    46   43   44 2   
    47   43   53 1   
    48   45   46 1   
    49   45   51 1   
    50   45   52 1   
    51   46   47 1   
    52   46   48 1   
    53   53   54 1   
    54   53   57 1   
    55   54   55 1   
    56   54   58 1   
    57   54   59 1   
    58   55   56 2   
    59   55   60 1   
    60   60   61 1   
    61   60   68 1   
    62   61   62 1   
    63   61   64 1   
    64   61   69 1   
    65   62   63 2   
    66   62   72 1   
    67   64   65 1   
    68   64   70 1   
    69   64   71 1   
    70   65   66 1   
    71   65   67 1   
    72   72   73 1   
    73   72   76 1   
    74   73   74 1   
    75   73   77 1   
    76   73   78 1   
    77   74   75 2   
    78   74   79 1   
    79   79   80 1   
    80   79   86 1   
    81   80   81 1   
    82   80   83 1   
    83   80   87 1   
    84   81   82 2   
    85   81   93 1   
    86   83   84 1   
    87   83   85 1   
    88   83   88 1   
    89   84   90 1   
    90   84   91 1   
    91   84   92 1   
    92   85   89 1   
    93   93   94 1   
    94   93  101 1   
    95   94   95 1   
    96   94   97 1   
    97   94  102 1   
    98   95   96 2   
    99   95  112 1   
   100   97   98 1   
   101   97   99 1   
   102   97  103 1   
   103   98  100 1   
   104   98  104 1   
   105   98  105 1   
   106   99  106 1   
   107   99  107 1   
   108   99  108 1   
   109  100  109 1   
   110  100  110 1   
   111  100  111 1   
   112  112  113 1   
   113  112  119 1   
   114  113  114 1   
   115  113  116 1   
   116  113  120 1   
   117  114  115 2   
   118  114  126 1   
   119  116  117 1   
   120  116  118 1   
   121  116  121 1   
   122  117  123 1   
   123  117  124 1   
   124  117  125 1   
   125  118  122 1   
   126  126  127 1   
   127  126  133 1   
   128  127  128 1   
   129  127  130 1   
   130  127  134 1   
   131  128  129 2   
   132  128  140 1   
   133  130  131 1   
   134  130  132 1   
   135  130  135 1   
   136  131  137 1   
   137  131  138 1   
   138  131  139 1   
   139  132  136 1   
   140  140  141 1   
   141  140  149 1   
   142  141  142 1   
   143  141  144 1   
   144  141  150 1   
   145  142  143 2   
   146  142  162 1   
   147  144  145 1   
   148  144  151 1   
   149  144  152 1   
   150  145  146 1   
   151  145  153 1   
   152  145  154 1   
   153  146  147 1   
   154  146  155 1   
   155  146  156 1   
   156  147  148 1   
   157  147  157 1   
   158  147  158 1   
   159  148  159 1   
   160  148  160 1   
   161  148  161 1   
   162  162  163 1   
   163  162  171 1   
   164  163  164 1   
   165  163  166 1   
   166  163  172 1   
   167  164  165 2   
   168  164  177 1   
   169  166  167 1   
   170  166  173 1   
   171  166  174 1   
   172  167  168 1   
   173  167  175 1   
   174  167  176 1   
   175  168  169 1   
   176  168  170 1   
   177  177  178 1   
   178  177  182 1   
   179  178  179 1   
   180  178  180 1   
   181  178  181 1   
   182  184  185 1   
   183  184  186 1   
@<TRIPOS>SUBSTRUCTURE
     1 MOL         1 TEMP              0 ****  ****    0 ROOT
