@<TRIPOS>MOLECULE
MOL
  189   185     1     0     0
SMALL
resp


@<TRIPOS>ATOM
      1 C1          1.2430   -4.2030    5.8930 c3        1 MOL     -0.554313
      2 C2          1.7170   -3.4110    4.6290 c         1 MOL      0.669696
      3 O1          1.3230   -2.2840    4.3480 o         1 MOL     -0.544879
      4 H1          0.1660   -4.0900    6.0090 hc        1 MOL      0.147906
      5 H2          1.4860   -5.2590    5.7720 hc        1 MOL      0.147906
      6 H3          1.7460   -3.8130    6.7770 hc        1 MOL      0.147906
      7 N1          2.6560   -4.1050    3.9100 n         1 MOL     -0.497255
      8 C3          3.1680   -3.5480    2.6890 c3        1 MOL      0.247583
      9 C4          3.3970   -4.7170    1.6860 c         1 MOL      0.394931
     10 O2          3.5780   -5.9200    2.1000 o         1 MOL     -0.540023
     11 C5          4.5170   -2.8360    2.7980 c3        1 MOL     -0.313063
     12 C6          4.9110   -1.9300    1.6770 c         1 MOL      0.648968
     13 O3          4.1550   -1.6440    0.7060 o         1 MOL     -0.657604
     14 O4          6.0380   -1.3500    1.6600 o         1 MOL     -0.657604
     15 H4          2.9090   -5.0390    4.2230 hn        1 MOL      0.285833
     16 H5          2.4270   -2.8720    2.2490 h1        1 MOL     -0.017568
     17 H6          5.2860   -3.5730    3.0370 hc        1 MOL      0.090409
     18 H7          4.6050   -2.3650    3.7760 hc        1 MOL      0.090409
     19 N2          3.3330   -4.3100    0.3780 n         1 MOL     -0.278983
     20 C7          3.4460   -5.3010   -0.6810 c3        1 MOL     -0.167212
     21 C8          4.1090   -4.7960   -1.9680 c         1 MOL      0.461964
     22 O5          4.4880   -5.5500   -2.8980 o         1 MOL     -0.541549
     23 C9          2.1140   -6.0390   -0.9940 c3        1 MOL      0.173195
     24 C10         2.1770   -7.3830   -1.7210 c3        1 MOL      0.030330
     25 C11         1.1860   -5.0610   -1.7840 c3        1 MOL     -0.253898
     26 C12         3.0370   -8.4520   -1.0360 c3        1 MOL     -0.310163
     27 H8          3.0980   -3.3490    0.1270 hn        1 MOL      0.288099
     28 H9          4.0310   -6.1110   -0.2300 h1        1 MOL      0.131472
     29 H10         1.4890   -6.1780   -0.1040 hc        1 MOL      0.019326
     30 H11         2.4340   -7.2160   -2.7630 hc        1 MOL      0.011964
     31 H12         1.1640   -7.7770   -1.8140 hc        1 MOL      0.011964
     32 H13         0.8590   -4.2240   -1.1690 hc        1 MOL      0.056558
     33 H14         1.6380   -4.6850   -2.7020 hc        1 MOL      0.056558
     34 H15         0.3120   -5.6300   -2.0990 hc        1 MOL      0.056558
     35 H16         2.6890   -8.8650   -0.0930 hc        1 MOL      0.065878
     36 H17         3.2200   -9.2330   -1.7690 hc        1 MOL      0.065878
     37 H18         3.9740   -7.9700   -0.7560 hc        1 MOL      0.065878
     38 N3          4.4110   -3.4790   -2.0560 n         1 MOL     -0.316297
     39 C13         4.9750   -2.8000   -3.1590 c3        1 MOL      0.025370
     40 C14         6.1460   -1.8210   -2.8810 c         1 MOL      0.355127
     41 O6          6.7990   -1.4780   -3.8480 o         1 MOL     -0.540050
     42 C15         3.9040   -2.0790   -3.9800 c3        1 MOL     -0.125934
     43 C16         3.0680   -1.1400   -3.1450 c         1 MOL      0.688932
     44 O7          3.4650   -0.7990   -1.9820 o         1 MOL     -0.677652
     45 O8          2.0750   -0.6130   -3.6820 o         1 MOL     -0.677652
     46 H19         4.1740   -2.8580   -1.2990 hn        1 MOL      0.220555
     47 H20         5.2670   -3.5330   -3.9240 h1        1 MOL      0.085422
     48 H21         3.1390   -2.7980   -4.2920 hc        1 MOL      0.047337
     49 H22         4.2650   -1.5370   -4.8510 hc        1 MOL      0.047337
     50 N4          6.3660   -1.3500   -1.6900 n         1 MOL     -0.183011
     51 C17         7.3670   -0.4100   -1.3390 c3        1 MOL     -0.044776
     52 C18         7.1510    1.0700   -1.7480 c         1 MOL      0.445549
     53 O9          8.0710    1.7880   -1.9200 o         1 MOL     -0.580927
     54 H23         5.7080   -1.6200   -0.9780 hn        1 MOL      0.156219
     55 H24         8.3610   -0.7590   -1.6280 h1        1 MOL      0.062961
     56 H25         7.4420   -0.5260   -0.2580 h1        1 MOL      0.062961
     57 N5          5.8900    1.4930   -1.9610 n         1 MOL     -0.148328
     58 C19         5.6000    2.8880   -2.5070 c3        1 MOL     -0.063049
     59 C20         5.7560    3.9560   -1.4630 c         1 MOL      0.425405
     60 O10         5.7610    5.1440   -1.8080 o         1 MOL     -0.566484
     61 C21         4.2760    3.0070   -3.1770 c3        1 MOL     -0.283837
     62 C22         3.0490    2.7040   -2.3820 c         1 MOL      0.815923
     63 O11         3.2030    2.1550   -1.2380 o         1 MOL     -0.682994
     64 O12         1.9930    2.8530   -2.9740 o         1 MOL     -0.682994
     65 H26         5.1230    0.8600   -1.8230 hn        1 MOL      0.200562
     66 H27         6.3790    3.0820   -3.2550 h1        1 MOL      0.109708
     67 H28         4.3750    2.4600   -4.1140 hc        1 MOL      0.079903
     68 H29         4.1360    4.0380   -3.4970 hc        1 MOL      0.079903
     69 N6          5.7470    3.5420   -0.1790 n         1 MOL     -0.111751
     70 C23         5.9250    4.3000    1.0570 c3        1 MOL     -0.285839
     71 C24         4.6050    4.9150    1.4940 c         1 MOL      0.547526
     72 O13         4.6160    5.8660    2.2060 o         1 MOL     -0.591187
     73 H30         5.5540    2.5610    0.0030 hn        1 MOL      0.140004
     74 H31         6.6990    5.0360    0.8500 h1        1 MOL      0.115166
     75 H32         6.3710    3.6070    1.7740 h1        1 MOL      0.115166
     76 N7          3.5080    4.4350    0.9600 n         1 MOL     -0.032604
     77 C25         2.2470    4.7840    1.4370 c3        1 MOL     -0.111075
     78 C26         1.5570    3.4510    1.8380 c         1 MOL      0.543011
     79 O14         1.8430    2.4340    1.2250 o         1 MOL     -0.505481
     80 C27         1.4230    5.5650    0.4100 c3        1 MOL      0.186803
     81 C28         2.0800    6.8340   -0.1050 c3        1 MOL     -0.331097
     82 C29         1.0760    7.8870   -0.6010 c         1 MOL      0.643120
     83 N8          0.6820    7.8000   -1.8570 n         1 MOL     -0.774874
     84 O15         0.5050    8.6640    0.1100 o         1 MOL     -0.578080
     85 H33         3.5260    3.5890    0.4030 hn        1 MOL      0.011804
     86 H34         2.3230    5.2490    2.4220 h1        1 MOL      0.040465
     87 H35         0.5090    5.7890    0.9500 hc        1 MOL      0.014075
     88 H36         1.1310    4.9190   -0.4220 hc        1 MOL      0.014075
     89 H37         2.8300    6.5190   -0.8310 hc        1 MOL      0.093894
     90 H38         2.6480    7.1400    0.7750 hc        1 MOL      0.093894
     91 H39         1.0630    7.1220   -2.4960 hn        1 MOL      0.356421
     92 H40        -0.0270    8.4760   -2.1150 hn        1 MOL      0.356421
     93 N9          0.6160    3.5610    2.8670 n         1 MOL     -0.655779
     94 C30        -0.3710    2.4710    2.8440 c3        1 MOL      0.143163
     95 C31        -1.5640    2.7950    1.8620 c         1 MOL      0.452212
     96 O16        -2.1180    3.8480    1.8860 o         1 MOL     -0.563126
     97 C32        -0.8090    2.1530    4.2580 c3        1 MOL      0.242817
     98 C33        -1.6290    3.2730    4.9390 c3        1 MOL     -0.247125
     99 C34        -1.5040    0.7910    4.3860 c3        1 MOL     -0.247125
    100 H41         0.5020    4.4650    3.2990 hn        1 MOL      0.358358
    101 H42         0.0990    1.5760    2.4430 h1        1 MOL      0.045239
    102 H43         0.1100    2.1320    4.8410 hc        1 MOL     -0.044536
    103 H44        -2.4730    3.5140    4.2980 hc        1 MOL      0.049522
    104 H45        -1.9620    2.8080    5.8690 hc        1 MOL      0.049522
    105 H46        -1.1430    4.2250    5.1490 hc        1 MOL      0.049522
    106 H47        -0.8420    0.0760    3.8950 hc        1 MOL      0.049522
    107 H48        -1.5740    0.4140    5.4000 hc        1 MOL      0.049522
    108 H49        -2.4790    0.8300    3.9010 hc        1 MOL      0.049522
    109 N10        -1.8930    1.8630    1.0000 n         1 MOL     -0.126171
    110 C35        -2.9830    1.8560    0.0370 c3        1 MOL     -0.003016
    111 C36        -4.2660    1.6800    0.8650 c         1 MOL      0.410135
    112 O17        -4.2240    1.0080    1.8830 o         1 MOL     -0.427075
    113 C37        -2.6130    0.8190   -1.0740 c3        1 MOL      0.040046
    114 C38        -3.5290    0.6010   -2.2000 c         1 MOL      0.547945
    115 N11        -3.2840   -0.2410   -3.1800 n         1 MOL     -0.657810
    116 O18        -4.6320    1.1480   -2.1250 o         1 MOL     -0.562650
    117 H50        -1.3220    1.0190    1.0150 hn        1 MOL      0.038886
    118 H51        -3.1320    2.8680   -0.3380 h1        1 MOL      0.049879
    119 H52        -2.4130   -0.1350   -0.5720 hc        1 MOL      0.015432
    120 H53        -1.6710    1.1870   -1.4860 hc        1 MOL      0.015432
    121 H54        -2.4490   -0.8040   -3.0930 hn        1 MOL      0.338036
    122 H55        -4.0250   -0.5980   -3.7720 hn        1 MOL      0.338036
    123 N12        -5.4230    2.1760    0.4570 n         1 MOL     -0.424643
    124 C39        -6.7170    1.7270    1.0350 c3        1 MOL      0.208623
    125 C40        -6.9660    0.1700    0.9420 c         1 MOL      0.155339
    126 O19        -7.8230   -0.3660    1.6830 o         1 MOL     -0.508749
    127 C41        -7.9560    2.3880    0.3450 c3        1 MOL     -0.166677
    128 C42        -8.3260    1.7760   -1.0330 ca        1 MOL      0.107569
    129 C43        -9.1930    0.7150   -1.0010 ca        1 MOL     -0.188288
    130 C44        -7.9030    2.4280   -2.2240 ca        1 MOL     -0.188288
    131 C45        -9.6260    0.2000   -2.2350 ca        1 MOL     -0.335666
    132 C46        -8.3490    1.8880   -3.4400 ca        1 MOL     -0.335666
    133 C47        -9.1570    0.7550   -3.4390 ca        1 MOL      0.420632
    134 O20        -9.6830    0.3290   -4.5700 oh        1 MOL     -0.498470
    135 H56        -5.5090    2.6630   -0.4250 hn        1 MOL      0.267190
    136 H57        -6.6640    2.0680    2.0630 h1        1 MOL      0.069452
    137 H58        -7.7020    3.4320    0.2220 hc        1 MOL      0.040814
    138 H59        -8.8660    2.3250    0.9360 hc        1 MOL      0.040814
    139 H60        -9.5090    0.2550   -0.0700 ha        1 MOL      0.169303
    140 H61        -7.1840    3.2280   -2.2720 ha        1 MOL      0.169303
    141 H62       -10.2340   -0.6970   -2.1820 ha        1 MOL      0.168104
    142 H63        -8.1450    2.4050   -4.3650 ha        1 MOL      0.168104
    143 H64       -10.1750   -0.4910   -4.5050 ho        1 MOL      0.363593
    144 N13        -6.3600   -0.4940   -0.0720 n         1 MOL     -0.116956
    145 C48        -6.3060   -1.9690   -0.2500 c3        1 MOL      0.086078
    146 C49        -5.2210   -2.6670    0.6110 c         1 MOL      0.233733
    147 O21        -5.1360   -3.9250    0.7730 o         1 MOL     -0.536898
    148 C50        -5.9670   -2.3170   -1.7030 c3        1 MOL      0.014041
    149 C51        -6.9830   -1.8270   -2.7660 c3        1 MOL     -0.061755
    150 C52        -6.5730   -2.1700   -4.1570 c         1 MOL      0.751425
    151 O22        -7.0920   -3.1130   -4.7280 o         1 MOL     -0.740649
    152 O23        -5.7050   -1.4570   -4.6910 o         1 MOL     -0.740649
    153 H65        -5.8370    0.1370   -0.6600 hn        1 MOL      0.313528
    154 H66        -7.2260   -2.4670    0.0440 h1        1 MOL      0.085786
    155 H67        -6.0300   -3.4010   -1.7920 hc        1 MOL      0.008983
    156 H68        -5.0330   -1.8170   -1.9590 hc        1 MOL      0.008983
    157 H69        -7.1410   -0.7490   -2.8200 hc        1 MOL     -0.031430
    158 H70        -7.9160   -2.2540   -2.4110 hc        1 MOL     -0.031430
    159 N14        -4.3380   -1.9420    1.3010 n         1 MOL     -0.012139
    160 C53        -3.4610   -2.5030    2.3900 c3        1 MOL     -0.033537
    161 C54        -3.9860   -2.2890    3.7880 c         1 MOL      0.402304
    162 O24        -3.5380   -2.9650    4.7080 o         1 MOL     -0.539311
    163 C55        -2.1070   -1.8400    2.2530 c3        1 MOL      0.123758
    164 C56        -1.3280   -2.4360    1.0350 c3        1 MOL     -0.140786
    165 C57         0.0020   -1.6340    0.7190 c         1 MOL      0.859007
    166 O25        -0.0530   -0.4100    0.8940 o         1 MOL     -0.765322
    167 O26         0.9510   -2.0930    0.1050 o         1 MOL     -0.765322
    168 H71        -4.3720   -0.9310    1.2090 hn        1 MOL     -0.091570
    169 H72        -3.2380   -3.5750    2.4380 h1        1 MOL      0.084445
    170 H73        -1.5600   -1.9280    3.1940 hc        1 MOL      0.043470
    171 H74        -2.3260   -0.7840    2.0700 hc        1 MOL      0.043470
    172 H75        -1.9620   -2.5510    0.1620 hc        1 MOL      0.009604
    173 H76        -1.0460   -3.4120    1.4220 hc        1 MOL      0.009604
    174 N15        -4.8640   -1.2660    3.9620 n         1 MOL     -0.242108
    175 C58        -5.1560   -0.6150    5.2120 c3        1 MOL      0.020154
    176 H77        -6.1420   -0.9220    5.5600 h1        1 MOL      0.022028
    177 H78        -4.4070   -0.8960    5.9520 h1        1 MOL      0.022028
    178 H79        -5.1410    0.4660    5.0710 h1        1 MOL      0.022028
    179 H80        -5.2370   -0.8420    3.1320 hn        1 MOL      0.240510
    180 Ca1         2.4320    0.0390    0.0870 Ca        1 MOL      1.688737
    181 O27         5.1550    1.0160    1.0860 oh        1 MOL     -0.775555
    182 H81         5.5300    0.1410    1.1070 ho        1 MOL      0.377332
    183 H82         5.0460    1.2590    2.0100 ho        1 MOL      0.377332
    184 O28         2.3090   -0.3310    2.7290 oh        1 MOL     -0.775555
    185 H83         2.6340    0.3180    3.3600 ho        1 MOL      0.377332
    186 H84         1.8190   -0.9520    3.2610 ho        1 MOL      0.377332
    187 O29         0.6860    0.7410   -1.8720 oh        1 MOL     -0.775555
    188 H85         0.9450    1.6070   -2.1780 ho        1 MOL      0.377332
    189 H86         0.7120    0.1960   -2.6670 ho        1 MOL      0.377332
@<TRIPOS>BOND
     1    1    2 1   
     2    1    4 1   
     3    1    5 1   
     4    1    6 1   
     5    2    3 2   
     6    2    7 1   
     7    7    8 1   
     8    7   15 1   
     9    8    9 1   
    10    8   11 1   
    11    8   16 1   
    12    9   10 2   
    13    9   19 1   
    14   11   12 1   
    15   11   17 1   
    16   11   18 1   
    17   12   13 1   
    18   12   14 1   
    19   19   20 1   
    20   19   27 1   
    21   20   21 1   
    22   20   23 1   
    23   20   28 1   
    24   21   22 2   
    25   21   38 1   
    26   23   24 1   
    27   23   25 1   
    28   23   29 1   
    29   24   26 1   
    30   24   30 1   
    31   24   31 1   
    32   25   32 1   
    33   25   33 1   
    34   25   34 1   
    35   26   35 1   
    36   26   36 1   
    37   26   37 1   
    38   38   39 1   
    39   38   46 1   
    40   39   40 1   
    41   39   42 1   
    42   39   47 1   
    43   40   41 2   
    44   40   50 1   
    45   42   43 1   
    46   42   48 1   
    47   42   49 1   
    48   43   44 1   
    49   43   45 1   
    50   50   51 1   
    51   50   54 1   
    52   51   52 1   
    53   51   55 1   
    54   51   56 1   
    55   52   53 2   
    56   52   57 1   
    57   57   58 1   
    58   57   65 1   
    59   58   59 1   
    60   58   61 1   
    61   58   66 1   
    62   59   60 2   
    63   59   69 1   
    64   61   62 1   
    65   61   67 1   
    66   61   68 1   
    67   62   63 1   
    68   62   64 1   
    69   69   70 1   
    70   69   73 1   
    71   70   71 1   
    72   70   74 1   
    73   70   75 1   
    74   71   72 2   
    75   71   76 1   
    76   76   77 1   
    77   76   85 1   
    78   77   78 1   
    79   77   80 1   
    80   77   86 1   
    81   78   79 2   
    82   78   93 1   
    83   80   81 1   
    84   80   87 1   
    85   80   88 1   
    86   81   82 1   
    87   81   89 1   
    88   81   90 1   
    89   82   83 1   
    90   82   84 2   
    91   83   91 1   
    92   83   92 1   
    93   93   94 1   
    94   93  100 1   
    95   94   95 1   
    96   94   97 1   
    97   94  101 1   
    98   95   96 2   
    99   95  109 1   
   100   97   98 1   
   101   97   99 1   
   102   97  102 1   
   103   98  103 1   
   104   98  104 1   
   105   98  105 1   
   106   99  106 1   
   107   99  107 1   
   108   99  108 1   
   109  109  110 1   
   110  109  117 1   
   111  110  111 1   
   112  110  113 1   
   113  110  118 1   
   114  111  112 2   
   115  111  123 1   
   116  113  114 1   
   117  113  119 1   
   118  113  120 1   
   119  114  115 1   
   120  114  116 2   
   121  115  121 1   
   122  115  122 1   
   123  123  124 1   
   124  123  135 1   
   125  124  125 1   
   126  124  127 1   
   127  124  136 1   
   128  125  126 2   
   129  125  144 1   
   130  127  128 1   
   131  127  137 1   
   132  127  138 1   
   133  128  129 ar  
   134  128  130 ar  
   135  129  131 ar  
   136  129  139 1   
   137  130  132 ar  
   138  130  140 1   
   139  131  133 ar  
   140  131  141 1   
   141  132  133 ar  
   142  132  142 1   
   143  133  134 1   
   144  134  143 1   
   145  144  145 1   
   146  144  153 1   
   147  145  146 1   
   148  145  148 1   
   149  145  154 1   
   150  146  147 2   
   151  146  159 1   
   152  148  149 1   
   153  148  155 1   
   154  148  156 1   
   155  149  150 1   
   156  149  157 1   
   157  149  158 1   
   158  150  151 1   
   159  150  152 1   
   160  159  160 1   
   161  159  168 1   
   162  160  161 1   
   163  160  163 1   
   164  160  169 1   
   165  161  162 2   
   166  161  174 1   
   167  163  164 1   
   168  163  170 1   
   169  163  171 1   
   170  164  165 1   
   171  164  172 1   
   172  164  173 1   
   173  165  166 1   
   174  165  167 1   
   175  174  175 1   
   176  174  179 1   
   177  175  176 1   
   178  175  177 1   
   179  175  178 1   
   180  181  182 1   
   181  181  183 1   
   182  184  185 1   
   183  184  186 1   
   184  187  188 1   
   185  187  189 1   
@<TRIPOS>SUBSTRUCTURE
     1 MOL         1 TEMP              0 ****  ****    0 ROOT
