@<TRIPOS>MOLECULE
MOL
  189   185     1     0     0
SMALL
resp


@<TRIPOS>ATOM
      1 C1         -0.3650   -3.8840    6.0280 c3        1 MOL     -0.456475
      2 C2          0.1430   -3.3430    4.7130 c         1 MOL      0.794444
      3 O1          0.3620   -2.1540    4.6350 o         1 MOL     -0.616535
      4 H1          0.0530   -4.8760    6.1980 hc        1 MOL      0.112721
      5 H2         -0.0630   -3.2180    6.8360 hc        1 MOL      0.112721
      6 H3         -1.4530   -3.9500    5.9980 hc        1 MOL      0.112721
      7 N1          0.3920   -4.2660    3.7520 n         1 MOL     -0.712989
      8 C3          1.0260   -3.9320    2.4690 c3        1 MOL      0.401414
      9 C4          0.6080   -4.9130    1.3650 c         1 MOL      0.445994
     10 O2          0.2920   -6.0600    1.6870 o         1 MOL     -0.598836
     11 C5          2.5420   -3.9240    2.6370 c3        1 MOL     -0.395965
     12 C6          3.3640   -3.3190    1.5360 c         1 MOL      0.742608
     13 O3          4.5390   -3.1750    1.8360 o         1 MOL     -0.666770
     14 O4          2.9680   -2.7330    0.5060 o         1 MOL     -0.666770
     15 H4          0.1200   -5.2230    3.8660 hn        1 MOL      0.319992
     16 H5          0.5980   -2.9850    2.1530 h1        1 MOL      0.116683
     17 H6          2.9250   -4.9340    2.6910 hc        1 MOL      0.094110
     18 H7          2.7330   -3.4530    3.6010 hc        1 MOL      0.094110
     19 N2          0.7670   -4.5490    0.1190 n         1 MOL     -0.442254
     20 C7          0.5260   -5.3450   -1.1320 c3        1 MOL      0.047462
     21 C8          1.6890   -5.2120   -2.1450 c         1 MOL      0.543241
     22 O5          1.6180   -6.0320   -3.0560 o         1 MOL     -0.583504
     23 C9         -0.8470   -4.8970   -1.6680 c3        1 MOL      0.206044
     24 C10        -1.9910   -5.1590   -0.6610 c3        1 MOL     -0.299652
     25 C11        -1.1710   -5.6240   -2.9240 c3        1 MOL     -0.152293
     26 C12        -3.3070   -4.4020   -0.9610 c3        1 MOL     -0.190163
     27 H8          1.0030   -3.5780    0.0160 hn        1 MOL      0.344336
     28 H9          0.3540   -6.4120   -0.9390 h1        1 MOL      0.069473
     29 H10        -0.7920   -3.8250   -1.8800 hc        1 MOL      0.046964
     30 H11        -1.6700   -4.8320    0.3220 hc        1 MOL      0.087485
     31 H12        -2.2570   -6.2150   -0.5600 hc        1 MOL      0.087485
     32 H13        -2.2080   -5.4260   -3.1910 hc        1 MOL      0.021826
     33 H14        -0.5810   -5.2600   -3.7620 hc        1 MOL      0.021826
     34 H15        -0.9980   -6.6970   -2.8350 hc        1 MOL      0.021826
     35 H16        -3.0790   -3.3280   -0.9450 hc        1 MOL      0.077419
     36 H17        -3.6920   -4.6370   -1.9420 hc        1 MOL      0.077419
     37 H18        -4.0760   -4.6750   -0.2320 hc        1 MOL      0.077419
     38 N3          2.6660   -4.3300   -1.9760 n         1 MOL     -0.500661
     39 C13         3.6440   -4.0480   -3.0680 c3        1 MOL      0.275850
     40 C14         5.0260   -3.7950   -2.5450 c         1 MOL      0.359500
     41 O6          6.0150   -3.9540   -3.2950 o         1 MOL     -0.561891
     42 C15         3.2430   -2.9010   -4.0020 c3        1 MOL     -0.156164
     43 C16         2.8650   -1.4930   -3.5420 c         1 MOL      0.734324
     44 O7          2.9940   -1.2170   -2.3470 o         1 MOL     -0.703983
     45 O8          2.3760   -0.7780   -4.4030 o         1 MOL     -0.703983
     46 H19         2.6350   -3.8470   -1.0930 hn        1 MOL      0.193548
     47 H20         3.8650   -4.8800   -3.7310 h1        1 MOL      0.026122
     48 H21         2.3760   -3.3650   -4.4810 hc        1 MOL      0.024826
     49 H22         4.0440   -2.8960   -4.7370 hc        1 MOL      0.024826
     50 N4          5.1880   -3.4160   -1.2770 n         1 MOL     -0.264663
     51 C17         6.5410   -3.1720   -0.6740 c3        1 MOL     -0.133211
     52 C18         7.1510   -1.7780   -0.8590 c         1 MOL      0.423059
     53 O9          8.3530   -1.5650   -0.6430 o         1 MOL     -0.583684
     54 H23         4.3750   -3.2220   -0.7020 hn        1 MOL      0.197319
     55 H24         7.2940   -3.8730   -1.0320 h1        1 MOL      0.096548
     56 H25         6.4790   -3.3610    0.3940 h1        1 MOL      0.096548
     57 N5          6.3640   -0.8810   -1.3980 n         1 MOL      0.046895
     58 C19         6.9230    0.3120   -1.9280 c3        1 MOL     -0.271693
     59 C20         7.5020    1.2080   -0.8610 c         1 MOL      0.579710
     60 O10         8.4210    1.9740   -1.1610 o         1 MOL     -0.590587
     61 C21         5.9030    1.1230   -2.8010 c3        1 MOL     -0.086434
     62 C22         4.5510    1.5260   -2.1050 c         1 MOL      0.606225
     63 O11         4.3380    1.2580   -0.9150 o         1 MOL     -0.639983
     64 O12         3.7370    2.1760   -2.8310 o         1 MOL     -0.639983
     65 H26         5.3870   -1.0850   -1.5520 hn        1 MOL      0.115757
     66 H27         7.7430    0.0730   -2.5980 h1        1 MOL      0.127705
     67 H28         5.6740    0.6670   -3.7690 hc        1 MOL      0.058568
     68 H29         6.3170    2.0450   -3.2110 hc        1 MOL      0.058568
     69 N6          7.0090    1.2090    0.3900 n         1 MOL     -0.276877
     70 C23         7.3070    2.0830    1.4780 c3        1 MOL     -0.090304
     71 C24         6.3300    3.2550    1.6890 c         1 MOL      0.501426
     72 O13         6.5370    4.1630    2.4800 o         1 MOL     -0.614781
     73 H30         6.2430    0.5810    0.5920 hn        1 MOL      0.220904
     74 H31         8.3170    2.4770    1.3890 h1        1 MOL      0.067828
     75 H32         7.3220    1.4980    2.3950 h1        1 MOL      0.067828
     76 N7          5.1440    3.1460    1.0940 n         1 MOL     -0.181758
     77 C25         4.0170    4.0970    1.2570 c3        1 MOL      0.102674
     78 C26         2.7420    3.2640    1.6380 c         1 MOL      0.228052
     79 O14         2.7160    2.0790    1.4030 o         1 MOL     -0.394329
     80 C27         3.7000    4.8140   -0.1070 c3        1 MOL      0.118971
     81 C28         4.8080    5.8230   -0.2540 c3        1 MOL     -0.274519
     82 C29         4.5880    6.8240   -1.3790 c         1 MOL      0.677712
     83 N8          5.4230    6.9080   -2.3620 n         1 MOL     -0.753085
     84 O15         3.6390    7.5490   -1.4090 o         1 MOL     -0.591580
     85 H33         4.9240    2.2800    0.6180 hn        1 MOL      0.102711
     86 H34         4.1460    4.7790    2.0860 h1        1 MOL      0.040528
     87 H35         2.7480    5.3160    0.0450 hc        1 MOL      0.019768
     88 H36         3.6690    4.1070   -0.9380 hc        1 MOL      0.019768
     89 H37         5.7700    5.3450   -0.4340 hc        1 MOL      0.058367
     90 H38         4.7740    6.4680    0.6290 hc        1 MOL      0.058367
     91 H39         6.3220    6.4660   -2.2440 hn        1 MOL      0.343553
     92 H40         5.2040    7.5450   -3.1120 hn        1 MOL      0.343553
     93 N9          1.6540    3.9610    2.1060 n         1 MOL     -0.261100
     94 C30         0.3570    3.3590    2.2720 c3        1 MOL      0.025735
     95 C31        -0.5980    3.6850    1.1950 c         1 MOL      0.508317
     96 O16        -0.8300    4.8200    0.9080 o         1 MOL     -0.559760
     97 C32        -0.2370    3.7460    3.6120 c3        1 MOL      0.125747
     98 C33        -1.5030    3.0320    3.8620 c3        1 MOL     -0.130322
     99 C34         0.6770    3.4500    4.7780 c3        1 MOL     -0.130322
    100 H41         1.6680    4.9550    2.2840 hn        1 MOL      0.244108
    101 H42         0.6190    2.3010    2.3330 h1        1 MOL      0.093618
    102 H43        -0.3550    4.8310    3.6260 hc        1 MOL     -0.014859
    103 H44        -2.1490    3.3180    3.0300 hc        1 MOL      0.018737
    104 H45        -1.3490    1.9600    3.8960 hc        1 MOL      0.018737
    105 H46        -2.0050    3.3240    4.7870 hc        1 MOL      0.018737
    106 H47         1.6450    3.9570    4.7400 hc        1 MOL      0.018737
    107 H48         0.1980    3.7850    5.7030 hc        1 MOL      0.018737
    108 H49         0.8750    2.3880    4.9300 hc        1 MOL      0.018737
    109 N10        -1.1770    2.5800    0.6090 n         1 MOL     -0.424910
    110 C35        -2.2650    2.7300   -0.3870 c3        1 MOL      0.421809
    111 C36        -3.6430    2.6260    0.2740 c         1 MOL      0.112170
    112 O17        -3.7940    2.0960    1.4060 o         1 MOL     -0.281433
    113 C37        -2.1130    1.5960   -1.4420 c3        1 MOL     -0.413677
    114 C38        -3.2670    1.3900   -2.3990 c         1 MOL      0.786240
    115 N11        -3.5730    2.2870   -3.3230 n         1 MOL     -0.753753
    116 O18        -3.9860    0.4170   -2.2450 o         1 MOL     -0.624036
    117 H50        -0.8520    1.6540    0.8270 hn        1 MOL      0.253406
    118 H51        -2.2070    3.7330   -0.8090 h1        1 MOL     -0.006711
    119 H52        -1.9230    0.6730   -0.9010 hc        1 MOL      0.122044
    120 H53        -1.1870    1.8790   -1.9410 hc        1 MOL      0.122044
    121 H54        -3.1130    3.1710   -3.4760 hn        1 MOL      0.336836
    122 H55        -4.5290    2.2150   -3.6220 hn        1 MOL      0.336836
    123 N12        -4.7050    3.1630   -0.3380 n         1 MOL     -0.150813
    124 C39        -6.0640    3.1450    0.2770 c3        1 MOL     -0.019040
    125 C40        -6.4590    1.6640    0.5900 c         1 MOL      0.407916
    126 O19        -7.2050    1.4330    1.5310 o         1 MOL     -0.604432
    127 C41        -6.9970    3.8610   -0.6710 c3        1 MOL     -0.031993
    128 C42        -7.0190    3.2800   -2.1220 ca        1 MOL     -0.105385
    129 C43        -6.2290    3.8630   -3.1080 ca        1 MOL     -0.084368
    130 C44        -7.9230    2.2570   -2.4660 ca        1 MOL     -0.084368
    131 C45        -6.1260    3.3410   -4.3880 ca        1 MOL     -0.251186
    132 C46        -7.8100    1.7800   -3.8090 ca        1 MOL     -0.251186
    133 C47        -7.0140    2.3660   -4.8170 ca        1 MOL      0.306749
    134 O20        -6.9780    1.8960   -6.1180 oh        1 MOL     -0.523562
    135 H56        -4.5820    3.5350   -1.2680 hn        1 MOL      0.074439
    136 H57        -6.0580    3.7330    1.1970 h1        1 MOL      0.076709
    137 H58        -6.8200    4.9390   -0.6730 hc        1 MOL      0.051314
    138 H59        -8.0160    3.8140   -0.2900 hc        1 MOL      0.051314
    139 H60        -5.7770    4.8280   -2.8940 ha        1 MOL      0.123995
    140 H61        -8.4620    1.7120   -1.7110 ha        1 MOL      0.123995
    141 H62        -5.4690    3.8390   -5.0910 ha        1 MOL      0.131429
    142 H63        -8.4250    0.9960   -4.2360 ha        1 MOL      0.131429
    143 H64        -7.5540    1.1260   -6.1500 ho        1 MOL      0.408277
    144 N13        -6.0140    0.6620   -0.0840 n         1 MOL      0.131965
    145 C48        -6.4010   -0.7400    0.1040 c3        1 MOL     -0.278714
    146 C49        -5.6710   -1.4690    1.3010 c         1 MOL      0.566539
    147 O21        -6.0520   -2.5590    1.7230 o         1 MOL     -0.493197
    148 C50        -6.1890   -1.4450   -1.2350 c3        1 MOL      0.218518
    149 C51        -6.9900   -2.7270   -1.3790 c3        1 MOL     -0.569507
    150 C52        -8.5300   -2.5050   -1.2090 c         1 MOL      0.826663
    151 O22        -9.0200   -2.3350   -0.0700 o         1 MOL     -0.761013
    152 O23        -9.3300   -2.6070   -2.2020 o         1 MOL     -0.761013
    153 H65        -5.5010    0.8140   -0.9330 hn        1 MOL      0.151123
    154 H66        -7.4350   -0.6330    0.3940 h1        1 MOL      0.193491
    155 H67        -5.1900   -1.8600   -1.3580 hc        1 MOL      0.004988
    156 H68        -6.4600   -0.8500   -2.1040 hc        1 MOL      0.004988
    157 H69        -6.6800   -3.4330   -0.6030 hc        1 MOL      0.104043
    158 H70        -6.6690   -3.2380   -2.2850 hc        1 MOL      0.104043
    159 N14        -4.5720   -0.8210    1.7990 n         1 MOL     -0.404947
    160 C53        -3.6910   -1.2000    2.9220 c3        1 MOL      0.088039
    161 C54        -4.1220   -0.4110    4.1820 c         1 MOL      0.455112
    162 O24        -4.2110   -1.0480    5.2400 o         1 MOL     -0.572583
    163 C55        -2.2160   -0.8850    2.5530 c3        1 MOL      0.044066
    164 C56        -1.7250   -1.5950    1.3060 c3        1 MOL      0.301092
    165 C57        -0.4930   -0.9950    0.6200 c         1 MOL      0.814255
    166 O25         0.1830   -1.6180   -0.2540 o         1 MOL     -0.850595
    167 O26        -0.0910    0.1180    0.9500 o         1 MOL     -0.850595
    168 H71        -4.2930    0.0250    1.3250 hn        1 MOL      0.061192
    169 H72        -3.8050   -2.2510    3.1540 h1        1 MOL      0.047368
    170 H73        -1.6540   -1.3340    3.3770 hc        1 MOL     -0.026511
    171 H74        -2.0200    0.1880    2.5140 hc        1 MOL     -0.026511
    172 H75        -2.4960   -1.5840    0.5420 hc        1 MOL     -0.106792
    173 H76        -1.5210   -2.6160    1.6290 hc        1 MOL     -0.106792
    174 N15        -4.4680    0.8690    4.1010 n         1 MOL     -0.107213
    175 C58        -4.8090    1.6220    5.3380 c3        1 MOL     -0.130087
    176 H77        -5.4780    2.4450    5.0890 h1        1 MOL      0.065908
    177 H78        -5.3020    0.9550    6.0460 h1        1 MOL      0.065908
    178 H79        -3.8970    2.0180    5.7860 h1        1 MOL      0.065908
    179 H80        -4.2030    1.3290    3.2420 hn        1 MOL      0.088049
    180 Ca1         2.4240   -0.1370    0.0780 Ca        1 MOL      1.728719
    181 O27         1.9650   -0.4580    2.8670 oh        1 MOL     -0.891557
    182 O28         1.3750    1.5590   -1.8830 oh        1 MOL     -0.891557
    183 H81         2.4520    0.0420    3.5190 ho        1 MOL      0.417964
    184 H82         2.2010    1.7140   -2.3440 ho        1 MOL      0.417964
    185 H83         1.2040   -0.8060    3.3360 ho        1 MOL      0.417964
    186 H84         0.8270    1.0890   -2.5150 ho        1 MOL      0.417964
    187 O29         4.8540   -0.4580    1.6590 oh        1 MOL     -0.891557
    188 H85         4.9370   -1.4120    1.7320 ho        1 MOL      0.417964
    189 H86         4.9000   -0.1470    2.5640 ho        1 MOL      0.417964
@<TRIPOS>BOND
     1    1    2 1   
     2    1    4 1   
     3    1    5 1   
     4    1    6 1   
     5    2    3 2   
     6    2    7 1   
     7    7    8 1   
     8    7   15 1   
     9    8    9 1   
    10    8   11 1   
    11    8   16 1   
    12    9   10 2   
    13    9   19 1   
    14   11   12 1   
    15   11   17 1   
    16   11   18 1   
    17   12   13 1   
    18   12   14 1   
    19   19   20 1   
    20   19   27 1   
    21   20   21 1   
    22   20   23 1   
    23   20   28 1   
    24   21   22 2   
    25   21   38 1   
    26   23   24 1   
    27   23   25 1   
    28   23   29 1   
    29   24   26 1   
    30   24   30 1   
    31   24   31 1   
    32   25   32 1   
    33   25   33 1   
    34   25   34 1   
    35   26   35 1   
    36   26   36 1   
    37   26   37 1   
    38   38   39 1   
    39   38   46 1   
    40   39   40 1   
    41   39   42 1   
    42   39   47 1   
    43   40   41 2   
    44   40   50 1   
    45   42   43 1   
    46   42   48 1   
    47   42   49 1   
    48   43   44 1   
    49   43   45 1   
    50   50   51 1   
    51   50   54 1   
    52   51   52 1   
    53   51   55 1   
    54   51   56 1   
    55   52   53 2   
    56   52   57 1   
    57   57   58 1   
    58   57   65 1   
    59   58   59 1   
    60   58   61 1   
    61   58   66 1   
    62   59   60 2   
    63   59   69 1   
    64   61   62 1   
    65   61   67 1   
    66   61   68 1   
    67   62   63 1   
    68   62   64 1   
    69   69   70 1   
    70   69   73 1   
    71   70   71 1   
    72   70   74 1   
    73   70   75 1   
    74   71   72 2   
    75   71   76 1   
    76   76   77 1   
    77   76   85 1   
    78   77   78 1   
    79   77   80 1   
    80   77   86 1   
    81   78   79 2   
    82   78   93 1   
    83   80   81 1   
    84   80   87 1   
    85   80   88 1   
    86   81   82 1   
    87   81   89 1   
    88   81   90 1   
    89   82   83 1   
    90   82   84 2   
    91   83   91 1   
    92   83   92 1   
    93   93   94 1   
    94   93  100 1   
    95   94   95 1   
    96   94   97 1   
    97   94  101 1   
    98   95   96 2   
    99   95  109 1   
   100   97   98 1   
   101   97   99 1   
   102   97  102 1   
   103   98  103 1   
   104   98  104 1   
   105   98  105 1   
   106   99  106 1   
   107   99  107 1   
   108   99  108 1   
   109  109  110 1   
   110  109  117 1   
   111  110  111 1   
   112  110  113 1   
   113  110  118 1   
   114  111  112 2   
   115  111  123 1   
   116  113  114 1   
   117  113  119 1   
   118  113  120 1   
   119  114  115 1   
   120  114  116 2   
   121  115  121 1   
   122  115  122 1   
   123  123  124 1   
   124  123  135 1   
   125  124  125 1   
   126  124  127 1   
   127  124  136 1   
   128  125  126 2   
   129  125  144 1   
   130  127  128 1   
   131  127  137 1   
   132  127  138 1   
   133  128  129 ar  
   134  128  130 ar  
   135  129  131 ar  
   136  129  139 1   
   137  130  132 ar  
   138  130  140 1   
   139  131  133 ar  
   140  131  141 1   
   141  132  133 ar  
   142  132  142 1   
   143  133  134 1   
   144  134  143 1   
   145  144  145 1   
   146  144  153 1   
   147  145  146 1   
   148  145  148 1   
   149  145  154 1   
   150  146  147 2   
   151  146  159 1   
   152  148  149 1   
   153  148  155 1   
   154  148  156 1   
   155  149  150 1   
   156  149  157 1   
   157  149  158 1   
   158  150  151 1   
   159  150  152 1   
   160  159  160 1   
   161  159  168 1   
   162  160  161 1   
   163  160  163 1   
   164  160  169 1   
   165  161  162 2   
   166  161  174 1   
   167  163  164 1   
   168  163  170 1   
   169  163  171 1   
   170  164  165 1   
   171  164  172 1   
   172  164  173 1   
   173  165  166 1   
   174  165  167 1   
   175  174  175 1   
   176  174  179 1   
   177  175  176 1   
   178  175  177 1   
   179  175  178 1   
   180  181  183 1   
   181  181  185 1   
   182  182  184 1   
   183  182  186 1   
   184  187  188 1   
   185  187  189 1   
@<TRIPOS>SUBSTRUCTURE
     1 MOL         1 TEMP              0 ****  ****    0 ROOT
