@<TRIPOS>MOLECULE
MOL
  186   183     1     0     0
SMALL
resp


@<TRIPOS>ATOM
      1 C1          0.6290   -1.5650    6.4590 c3        1 MOL     -0.309795
      2 C2          1.0360   -1.9630    4.9890 c         1 MOL      0.783272
      3 O1          0.1790   -2.3710    4.2590 o         1 MOL     -0.591102
      4 H1          1.2930   -0.7780    6.8190 hc        1 MOL      0.068338
      5 H2         -0.3990   -1.2020    6.4670 hc        1 MOL      0.068338
      6 H3          0.7130   -2.4360    7.1100 hc        1 MOL      0.068338
      7 N1          2.2930   -1.8040    4.5870 n         1 MOL     -0.736820
      8 C3          2.7440   -1.8140    3.1670 c3        1 MOL      0.234957
      9 C4          2.9460   -3.2290    2.6120 c         1 MOL      0.547140
     10 O2          3.7150   -3.9800    3.1720 o         1 MOL     -0.567412
     11 C5          4.0100   -0.9440    3.0030 c3        1 MOL     -0.237635
     12 C6          4.4090   -0.7570    1.5310 c         1 MOL      0.776785
     13 O3          5.6070   -0.4200    1.3690 o         1 MOL     -0.648233
     14 O4          3.6230   -1.1310    0.6170 o         1 MOL     -0.648233
     15 H4          3.0340   -1.6290    5.2510 hn        1 MOL      0.352062
     16 H5          1.9930   -1.3940    2.4970 h1        1 MOL      0.026503
     17 H6          4.7940   -1.4020    3.6030 hc        1 MOL      0.040537
     18 H7          3.7670    0.0400    3.4090 hc        1 MOL      0.040537
     19 N2          2.3540   -3.6170    1.4360 n         1 MOL     -0.322363
     20 C7          2.2160   -5.1020    1.0720 c3        1 MOL     -0.268232
     21 C8          3.1920   -5.3020   -0.0530 c         1 MOL      0.669276
     22 O5          3.9170   -6.3100   -0.1350 o         1 MOL     -0.598039
     23 C9          0.6930   -5.4710    0.7800 c3        1 MOL      0.230386
     24 C10        -0.1720   -5.1220    2.0310 c3        1 MOL      0.171798
     25 C11         0.6120   -7.0410    0.6690 c3        1 MOL     -0.335788
     26 C12        -1.7230   -5.5170    1.8950 c3        1 MOL     -0.118630
     27 H8          1.8080   -2.9690    0.8820 hn        1 MOL      0.206074
     28 H9          2.5540   -5.6910    1.9200 h1        1 MOL      0.134710
     29 H10         0.4100   -5.0410   -0.1830 hc        1 MOL      0.003929
     30 H11        -0.2070   -4.0480    2.1400 hc        1 MOL     -0.022444
     31 H12         0.2240   -5.6830    2.8840 hc        1 MOL     -0.022444
     32 H13        -0.4000   -7.3630    0.4180 hc        1 MOL      0.063014
     33 H14         1.3070   -7.4510   -0.0720 hc        1 MOL      0.063014
     34 H15         0.9100   -7.4440    1.6340 hc        1 MOL      0.063014
     35 H16        -2.1680   -5.0530    2.7690 hc        1 MOL      0.019267
     36 H17        -2.2360   -5.2330    0.9720 hc        1 MOL      0.019267
     37 H18        -1.8480   -6.5920    2.0380 hc        1 MOL      0.019267
     38 N3          3.4850   -4.2820   -0.9340 n         1 MOL     -0.454146
     39 C13         4.4780   -4.3410   -2.0730 c3        1 MOL      0.071283
     40 C14         5.9140   -3.7110   -1.8780 c         1 MOL      0.365686
     41 O6          6.9190   -4.0220   -2.5500 o         1 MOL     -0.548850
     42 C15         3.8230   -3.8850   -3.3600 c3        1 MOL     -0.328692
     43 C16         2.9900   -2.6670   -3.3430 c         1 MOL      0.826132
     44 O7          1.9710   -2.5850   -4.0570 o         1 MOL     -0.719723
     45 O8          3.3660   -1.6960   -2.6890 o         1 MOL     -0.719723
     46 H19         2.9680   -3.4220   -0.7930 hn        1 MOL      0.262016
     47 H20         4.6960   -5.4100   -2.1660 h1        1 MOL      0.104847
     48 H21         3.2950   -4.7400   -3.7730 hc        1 MOL      0.077917
     49 H22         4.6020   -3.8900   -4.1250 hc        1 MOL      0.077917
     50 N4          6.0120   -2.8640   -0.8440 n         1 MOL     -0.005764
     51 C17         7.2520   -2.4810   -0.2090 c3        1 MOL     -0.366457
     52 C18         7.7880   -1.0100   -0.6160 c         1 MOL      0.675519
     53 O9          8.9490   -0.7380   -0.4040 o         1 MOL     -0.629723
     54 H23         5.1970   -2.7200   -0.2630 hn        1 MOL      0.171774
     55 H24         8.0000   -3.1800   -0.6030 h1        1 MOL      0.132961
     56 H25         7.1350   -2.5110    0.8770 h1        1 MOL      0.132961
     57 N5          6.9910   -0.1170   -1.1210 n         1 MOL     -0.308774
     58 C19         7.3160    1.2680   -1.6220 c3        1 MOL      0.031971
     59 C20         7.3890    2.3720   -0.5070 c         1 MOL      0.389041
     60 O10         7.9720    3.4750   -0.6220 o         1 MOL     -0.587145
     61 C21         6.2650    1.6470   -2.6770 c3        1 MOL     -0.231381
     62 C22         4.8310    1.4900   -2.1690 c         1 MOL      0.848728
     63 O11         4.5430    1.4150   -0.9610 o         1 MOL     -0.789941
     64 O12         3.8690    1.3060   -3.0040 o         1 MOL     -0.789941
     65 H26         6.0310   -0.4080   -0.9840 hn        1 MOL      0.092557
     66 H27         8.3110    1.2930   -2.0770 h1        1 MOL      0.094896
     67 H28         6.4180    0.9730   -3.5240 hc        1 MOL      0.071212
     68 H29         6.3920    2.6370   -3.1420 hc        1 MOL      0.071212
     69 N6          6.8130    2.0790    0.6450 n         1 MOL     -0.019779
     70 C23         6.6860    2.8670    1.8590 c3        1 MOL     -0.153136
     71 C24         5.5870    3.9380    1.7770 c         1 MOL      0.560005
     72 O13         5.7900    5.0420    2.3490 o         1 MOL     -0.584885
     73 H30         6.3170    1.2020    0.6510 hn        1 MOL      0.090896
     74 H31         7.6740    3.2220    2.1450 h1        1 MOL      0.078056
     75 H32         6.3990    2.1980    2.6740 h1        1 MOL      0.078056
     76 N7          4.5230    3.6060    0.9960 n         1 MOL     -0.497208
     77 C25         3.2070    4.2920    0.8750 c3        1 MOL      0.053114
     78 C26         2.0620    3.2410    0.9310 c         1 MOL      0.821531
     79 O14         2.2480    2.0790    0.6110 o         1 MOL     -0.732599
     80 C27         3.1450    5.2070   -0.4110 c3        1 MOL      0.016206
     81 C28         4.2880    6.2710   -0.2240 c3        1 MOL     -0.328428
     82 C29         4.3310    7.4520   -1.1910 c         1 MOL      0.750591
     83 N8          5.1930    7.6130   -2.1310 n         1 MOL     -0.815752
     84 O15         3.6100    8.3540   -0.9700 o         1 MOL     -0.617235
     85 H33         4.5610    2.6880    0.5860 hn        1 MOL      0.364816
     86 H34         2.9710    4.9960    1.6810 h1        1 MOL      0.046265
     87 H35         2.1520    5.6570   -0.4490 hc        1 MOL      0.032313
     88 H36         3.2410    4.6480   -1.3360 hc        1 MOL      0.032313
     89 H37         5.2500    5.7720   -0.3080 hc        1 MOL      0.119075
     90 H38         4.1390    6.7120    0.7670 hc        1 MOL      0.119075
     91 H39         5.9590    6.9790   -2.3130 hn        1 MOL      0.352624
     92 H40         5.2390    8.5030   -2.6010 hn        1 MOL      0.352624
     93 N9          0.8780    3.5770    1.4350 n         1 MOL     -0.730311
     94 C30        -0.2910    2.7580    1.6000 c3        1 MOL      0.354954
     95 C31        -1.3850    3.2550    0.7420 c         1 MOL      0.359316
     96 O16        -1.9620    4.2940    1.0370 o         1 MOL     -0.582073
     97 C32        -0.6640    2.7750    3.0890 c3        1 MOL      0.164913
     98 C33        -1.8570    1.8590    3.2370 c3        1 MOL     -0.337582
     99 C34         0.4150    2.4020    4.0860 c3        1 MOL     -0.337582
    100 H41         0.6830    4.5690    1.4440 hn        1 MOL      0.297847
    101 H42        -0.0500    1.7540    1.2490 h1        1 MOL      0.060157
    102 H43        -1.0350    3.7880    3.2780 hc        1 MOL     -0.015334
    103 H44        -1.5380    0.8240    3.1070 hc        1 MOL      0.077298
    104 H45        -2.1800    1.7780    4.2780 hc        1 MOL      0.077298
    105 H46        -2.6330    1.9210    2.4830 hc        1 MOL      0.077298
    106 H47         0.8410    1.4710    3.7150 hc        1 MOL      0.077298
    107 H48         1.2640    3.0900    4.0970 hc        1 MOL      0.077298
    108 H49         0.0600    2.2290    5.1010 hc        1 MOL      0.077298
    109 N10        -1.8010    2.4360   -0.1710 n         1 MOL     -0.037617
    110 C35        -2.8800    2.7890   -1.0270 c3        1 MOL      0.095247
    111 C36        -4.1860    2.0610   -0.5200 c         1 MOL      0.362894
    112 O17        -4.1040    1.2440    0.3770 o         1 MOL     -0.283520
    113 C37        -2.5910    2.5340   -2.4620 c3        1 MOL     -0.490477
    114 C38        -2.8260    1.1010   -2.9370 c         1 MOL      0.580612
    115 N11        -1.9600    0.1720   -2.5360 n         1 MOL     -0.625394
    116 O18        -3.8350    0.7100   -3.4910 o         1 MOL     -0.535089
    117 H50        -1.2550    1.6000   -0.3380 hn        1 MOL      0.111669
    118 H51        -3.0560    3.8630   -0.9190 h1        1 MOL      0.057663
    119 H52        -1.5620    2.8160   -2.7300 hc        1 MOL      0.156518
    120 H53        -3.2900    3.0490   -3.1120 hc        1 MOL      0.156518
    121 H54        -1.3220    0.3260   -1.7780 hn        1 MOL      0.333399
    122 H55        -2.1620   -0.7800   -2.8220 hn        1 MOL      0.333399
    123 N12        -5.4000    2.3270   -1.0160 n         1 MOL     -0.489414
    124 C39        -6.6200    2.0030   -0.3590 c3        1 MOL      0.131427
    125 C40        -6.7450    0.4590   -0.2970 c         1 MOL      0.461988
    126 O19        -7.1360   -0.1340    0.7050 o         1 MOL     -0.516187
    127 C41        -7.8090    2.7450   -1.0500 c3        1 MOL     -0.018514
    128 C42        -9.1520    2.6110   -0.3320 ca        1 MOL      0.189378
    129 C43        -9.1990    2.8930    1.0390 ca        1 MOL     -0.361759
    130 C44       -10.2800    2.1980   -1.0550 ca        1 MOL     -0.361759
    131 C45       -10.4050    2.6930    1.7070 ca        1 MOL     -0.068711
    132 C46       -11.4350    1.8040   -0.3210 ca        1 MOL     -0.068711
    133 C47       -11.5040    2.1610    0.9890 ca        1 MOL      0.205012
    134 O20       -12.6940    1.9310    1.5990 oh        1 MOL     -0.526985
    135 H56        -5.4940    2.9640   -1.7950 hn        1 MOL      0.279178
    136 H57        -6.5610    2.5120    0.6080 h1        1 MOL      0.062237
    137 H58        -8.0440    2.4280   -2.0680 hc        1 MOL      0.015695
    138 H59        -7.6250    3.8240   -1.1180 hc        1 MOL      0.015695
    139 H60        -8.3420    3.2230    1.6200 ha        1 MOL      0.184850
    140 H61       -10.2770    2.0910   -2.1260 ha        1 MOL      0.184850
    141 H62       -10.4620    2.9300    2.7610 ha        1 MOL      0.108947
    142 H63       -12.2700    1.3800   -0.8730 ha        1 MOL      0.108947
    143 H64       -13.3120    1.3750    1.1170 ho        1 MOL      0.375482
    144 N13        -6.1750   -0.2770   -1.2650 n         1 MOL     -0.349756
    145 C48        -6.2940   -1.7400   -1.2350 c3        1 MOL     -0.008913
    146 C49        -5.5610   -2.3610   -0.0670 c         1 MOL      0.386376
    147 O21        -5.9870   -3.3590    0.4330 o         1 MOL     -0.511776
    148 C50        -5.6910   -2.2990   -2.5000 c3        1 MOL      0.095452
    149 C51        -6.7100   -2.1760   -3.6860 c3        1 MOL     -0.069335
    150 C52        -6.3740   -2.8760   -5.0230 c         1 MOL      0.713822
    151 O22        -6.0980   -4.0620   -5.0070 o         1 MOL     -0.746237
    152 O23        -6.4070   -2.2030   -6.0960 o         1 MOL     -0.746237
    153 H65        -5.6310    0.2590   -1.9280 hn        1 MOL      0.248592
    154 H66        -7.3260   -2.0890   -1.2060 h1        1 MOL      0.093874
    155 H67        -5.3500   -3.3300   -2.4050 hc        1 MOL     -0.007909
    156 H68        -4.8580   -1.6870   -2.8430 hc        1 MOL     -0.007909
    157 H69        -6.7660   -1.1150   -3.9310 hc        1 MOL     -0.049732
    158 H70        -7.7290   -2.4670   -3.4220 hc        1 MOL     -0.049732
    159 N14        -4.4220   -1.7690    0.3500 n         1 MOL     -0.149496
    160 C53        -3.6210   -2.1700    1.5470 c3        1 MOL      0.083847
    161 C54        -4.3150   -1.7280    2.8390 c         1 MOL      0.405984
    162 O24        -4.4310   -2.5490    3.7470 o         1 MOL     -0.564495
    163 C55        -2.2520   -1.6190    1.3930 c3        1 MOL      0.158482
    164 C56        -1.5400   -2.0480    0.1360 c3        1 MOL      0.130320
    165 C57        -0.2460   -1.2500   -0.1910 c         1 MOL      0.671387
    166 O25         0.8720   -1.8010   -0.2480 o         1 MOL     -0.759779
    167 O26        -0.1920    0.0110   -0.3640 o         1 MOL     -0.759779
    168 H71        -4.0950   -1.0270   -0.2450 hn        1 MOL      0.117798
    169 H72        -3.6320   -3.2590    1.6200 h1        1 MOL      0.025146
    170 H73        -1.6840   -1.9400    2.2700 hc        1 MOL     -0.063143
    171 H74        -2.3760   -0.5490    1.2800 hc        1 MOL     -0.063143
    172 H75        -2.2560   -2.0160   -0.6880 hc        1 MOL     -0.062912
    173 H76        -1.3260   -3.1240    0.1540 hc        1 MOL     -0.062912
    174 N15        -4.8290   -0.5370    2.8810 n         1 MOL     -0.038577
    175 C58        -5.6620    0.0440    3.9390 c3        1 MOL     -0.237892
    176 H77        -5.0970    0.8130    4.4650 h1        1 MOL      0.084545
    177 H78        -6.5550    0.4880    3.4980 h1        1 MOL      0.084545
    178 H79        -5.9540   -0.7360    4.6420 h1        1 MOL      0.084545
    179 H80        -4.7680    0.0260    2.0400 hn        1 MOL      0.078337
    180 Ca1         2.2490    0.1030   -1.1760 Ca        1 MOL      1.800027
    181 O27         1.5950    2.8110   -2.3070 oh        1 MOL     -0.883365
    182 H81         2.3420    2.4810   -2.8150 ho        1 MOL      0.402047
    183 H82         1.0300    3.2280   -2.9570 ho        1 MOL      0.402047
    184 O28         0.7940   -0.2630   -3.4420 oh        1 MOL     -0.883365
    185 H83         0.1710    0.0040   -4.1070 ho        1 MOL      0.402047
    186 H84         1.1400   -1.0980   -3.7570 ho        1 MOL      0.402047
@<TRIPOS>BOND
     1    1    2 1   
     2    1    4 1   
     3    1    5 1   
     4    1    6 1   
     5    2    3 2   
     6    2    7 1   
     7    7    8 1   
     8    7   15 1   
     9    8    9 1   
    10    8   11 1   
    11    8   16 1   
    12    9   10 2   
    13    9   19 1   
    14   11   12 1   
    15   11   17 1   
    16   11   18 1   
    17   12   13 1   
    18   12   14 1   
    19   19   20 1   
    20   19   27 1   
    21   20   21 1   
    22   20   23 1   
    23   20   28 1   
    24   21   22 2   
    25   21   38 1   
    26   23   24 1   
    27   23   25 1   
    28   23   29 1   
    29   24   26 1   
    30   24   30 1   
    31   24   31 1   
    32   25   32 1   
    33   25   33 1   
    34   25   34 1   
    35   26   35 1   
    36   26   36 1   
    37   26   37 1   
    38   38   39 1   
    39   38   46 1   
    40   39   40 1   
    41   39   42 1   
    42   39   47 1   
    43   40   41 2   
    44   40   50 1   
    45   42   43 1   
    46   42   48 1   
    47   42   49 1   
    48   43   44 1   
    49   43   45 1   
    50   50   51 1   
    51   50   54 1   
    52   51   52 1   
    53   51   55 1   
    54   51   56 1   
    55   52   53 2   
    56   52   57 1   
    57   57   58 1   
    58   57   65 1   
    59   58   59 1   
    60   58   61 1   
    61   58   66 1   
    62   59   60 2   
    63   59   69 1   
    64   61   62 1   
    65   61   67 1   
    66   61   68 1   
    67   62   63 1   
    68   62   64 1   
    69   69   70 1   
    70   69   73 1   
    71   70   71 1   
    72   70   74 1   
    73   70   75 1   
    74   71   72 2   
    75   71   76 1   
    76   76   77 1   
    77   76   85 1   
    78   77   78 1   
    79   77   80 1   
    80   77   86 1   
    81   78   79 2   
    82   78   93 1   
    83   80   81 1   
    84   80   87 1   
    85   80   88 1   
    86   81   82 1   
    87   81   89 1   
    88   81   90 1   
    89   82   83 1   
    90   82   84 2   
    91   83   91 1   
    92   83   92 1   
    93   93   94 1   
    94   93  100 1   
    95   94   95 1   
    96   94   97 1   
    97   94  101 1   
    98   95   96 2   
    99   95  109 1   
   100   97   98 1   
   101   97   99 1   
   102   97  102 1   
   103   98  103 1   
   104   98  104 1   
   105   98  105 1   
   106   99  106 1   
   107   99  107 1   
   108   99  108 1   
   109  109  110 1   
   110  109  117 1   
   111  110  111 1   
   112  110  113 1   
   113  110  118 1   
   114  111  112 2   
   115  111  123 1   
   116  113  114 1   
   117  113  119 1   
   118  113  120 1   
   119  114  115 1   
   120  114  116 2   
   121  115  121 1   
   122  115  122 1   
   123  123  124 1   
   124  123  135 1   
   125  124  125 1   
   126  124  127 1   
   127  124  136 1   
   128  125  126 2   
   129  125  144 1   
   130  127  128 1   
   131  127  137 1   
   132  127  138 1   
   133  128  129 ar  
   134  128  130 ar  
   135  129  131 ar  
   136  129  139 1   
   137  130  132 ar  
   138  130  140 1   
   139  131  133 ar  
   140  131  141 1   
   141  132  133 ar  
   142  132  142 1   
   143  133  134 1   
   144  134  143 1   
   145  144  145 1   
   146  144  153 1   
   147  145  146 1   
   148  145  148 1   
   149  145  154 1   
   150  146  147 2   
   151  146  159 1   
   152  148  149 1   
   153  148  155 1   
   154  148  156 1   
   155  149  150 1   
   156  149  157 1   
   157  149  158 1   
   158  150  151 1   
   159  150  152 1   
   160  159  160 1   
   161  159  168 1   
   162  160  161 1   
   163  160  163 1   
   164  160  169 1   
   165  161  162 2   
   166  161  174 1   
   167  163  164 1   
   168  163  170 1   
   169  163  171 1   
   170  164  165 1   
   171  164  172 1   
   172  164  173 1   
   173  165  166 1   
   174  165  167 1   
   175  174  175 1   
   176  174  179 1   
   177  175  176 1   
   178  175  177 1   
   179  175  178 1   
   180  181  182 1   
   181  181  183 1   
   182  184  185 1   
   183  184  186 1   
@<TRIPOS>SUBSTRUCTURE
     1 MOL         1 TEMP              0 ****  ****    0 ROOT
