@<TRIPOS>MOLECULE
MOL
  189   185     1     0     0
SMALL
resp


@<TRIPOS>ATOM
      1 C1         -0.4290    3.7010    5.9320 c3        1 MOL     -0.485918
      2 C2         -1.0730    3.2570    4.6060 c         1 MOL      0.711298
      3 O1         -1.3620    2.0590    4.4000 o         1 MOL     -0.616326
      4 H1         -0.2570    4.7780    5.9100 hc        1 MOL      0.125001
      5 H2         -1.0950    3.4570    6.7610 hc        1 MOL      0.125001
      6 H3          0.5220    3.1850    6.0660 hc        1 MOL      0.125001
      7 N1         -1.2350    4.1620    3.7110 n         1 MOL     -0.483244
      8 C3         -1.8170    3.9100    2.4220 c3        1 MOL      0.166636
      9 C4         -1.2920    4.8780    1.3810 c         1 MOL      0.502074
     10 O2         -1.0870    6.0620    1.6580 o         1 MOL     -0.611776
     11 C5         -3.3640    3.9860    2.4980 c3        1 MOL     -0.362897
     12 C6         -4.1040    3.3180    1.3460 c         1 MOL      0.734991
     13 O3         -5.3240    3.3780    1.4130 o         1 MOL     -0.652639
     14 O4         -3.4940    2.6360    0.4210 o         1 MOL     -0.652639
     15 H4         -1.0740    5.1520    3.8580 hn        1 MOL      0.279565
     16 H5         -1.5710    2.9170    2.0650 h1        1 MOL      0.062758
     17 H6         -3.6980    5.0110    2.6770 hc        1 MOL      0.092103
     18 H7         -3.5170    3.4110    3.4170 hc        1 MOL      0.092103
     19 N2         -1.2280    4.5060    0.1290 n         1 MOL     -0.250722
     20 C7         -0.9670    5.3580   -1.0730 c3        1 MOL     -0.061947
     21 C8         -1.9150    5.0790   -2.2010 c         1 MOL      0.564441
     22 O5         -2.0440    5.8960   -3.1180 o         1 MOL     -0.572261
     23 C9          0.5600    5.2520   -1.3560 c3        1 MOL      0.138795
     24 C10         1.4260    6.3790   -0.7990 c3        1 MOL     -0.014861
     25 C11         0.7810    5.1400   -2.9130 c3        1 MOL     -0.163154
     26 C12         2.9580    6.2780   -0.9810 c3        1 MOL     -0.098195
     27 H8         -1.4580    3.5360   -0.0340 hn        1 MOL      0.187865
     28 H9         -1.1170    6.3870   -0.7500 h1        1 MOL      0.074722
     29 H10         0.9960    4.3150   -0.9890 hc        1 MOL      0.037375
     30 H11         1.2220    6.3440    0.2710 hc        1 MOL      0.005905
     31 H12         1.1480    7.3840   -1.1090 hc        1 MOL      0.005905
     32 H13         1.7420    4.6310   -3.0340 hc        1 MOL      0.031225
     33 H14         0.1720    4.4400   -3.4750 hc        1 MOL      0.031225
     34 H15         0.8970    6.1350   -3.3310 hc        1 MOL      0.031225
     35 H16         3.2890    5.2700   -0.7260 hc        1 MOL      0.022293
     36 H17         3.2540    6.5850   -1.9870 hc        1 MOL      0.022293
     37 H18         3.4480    7.0070   -0.3410 hc        1 MOL      0.022293
     38 N3         -2.7780    3.9960   -2.1660 n         1 MOL     -0.418581
     39 C13        -3.4990    3.5710   -3.3550 c3        1 MOL      0.039479
     40 C14        -4.9770    3.1920   -3.0580 c         1 MOL      0.371696
     41 O6         -5.7540    3.0230   -3.9950 o         1 MOL     -0.566582
     42 C15        -2.7370    2.4180   -4.0440 c3        1 MOL     -0.109808
     43 C16        -2.3840    1.2460   -3.1690 c         1 MOL      0.772210
     44 O7         -3.0540    1.0170   -2.1280 o         1 MOL     -0.691617
     45 O8         -1.4010    0.6300   -3.4380 o         1 MOL     -0.691617
     46 H19        -2.7410    3.2740   -1.4670 hn        1 MOL      0.226675
     47 H20        -3.4900    4.3640   -4.0990 h1        1 MOL      0.100248
     48 H21        -1.8310    2.7580   -4.5450 hc        1 MOL      0.027961
     49 H22        -3.3300    2.0540   -4.8790 hc        1 MOL      0.027961
     50 N4         -5.4770    3.1160   -1.8430 n         1 MOL     -0.140862
     51 C17        -6.8670    2.7780   -1.5200 c3        1 MOL     -0.158688
     52 C18        -7.2010    1.3360   -1.8190 c         1 MOL      0.480559
     53 O9         -8.4340    1.0610   -1.8240 o         1 MOL     -0.622090
     54 H23        -4.8170    3.3050   -1.1010 hn        1 MOL      0.123863
     55 H24        -7.6280    3.3620   -2.0280 h1        1 MOL      0.102409
     56 H25        -7.0210    2.8650   -0.4520 h1        1 MOL      0.102409
     57 N5         -6.3060    0.3380   -2.0040 n         1 MOL     -0.065176
     58 C19        -6.7210   -0.9890   -2.4440 c3        1 MOL     -0.170781
     59 C20        -7.2730   -1.9030   -1.3670 c         1 MOL      0.511039
     60 O10        -7.8890   -2.9200   -1.7110 o         1 MOL     -0.540394
     61 C21        -5.5730   -1.6990   -3.1930 c3        1 MOL     -0.183871
     62 C22        -4.3000   -1.9860   -2.4100 c         1 MOL      0.769454
     63 O11        -4.1940   -1.4950   -1.2230 o         1 MOL     -0.718777
     64 O12        -3.4110   -2.6630   -3.0070 o         1 MOL     -0.718777
     65 H26        -5.3170    0.5490   -1.9570 hn        1 MOL      0.118733
     66 H27        -7.4780   -0.7460   -3.1880 h1        1 MOL      0.133264
     67 H28        -5.2340   -1.0040   -3.9540 hc        1 MOL      0.054957
     68 H29        -5.9060   -2.6130   -3.6890 hc        1 MOL      0.054957
     69 N6         -7.2790   -1.5760   -0.0230 n         1 MOL     -0.313315
     70 C23        -7.6850   -2.4860    1.0390 c3        1 MOL     -0.132308
     71 C24        -6.6310   -3.4050    1.6180 c         1 MOL      0.456001
     72 O13        -7.0250   -4.4050    2.2350 o         1 MOL     -0.564586
     73 H30        -6.7820   -0.7480    0.2670 hn        1 MOL      0.230219
     74 H31        -8.4850   -3.1080    0.6260 h1        1 MOL      0.088648
     75 H32        -8.1080   -1.9170    1.8600 h1        1 MOL      0.088648
     76 N7         -5.3680   -3.2490    1.1910 n         1 MOL     -0.147062
     77 C25        -4.2950   -4.1450    1.6430 c3        1 MOL     -0.161283
     78 C26        -2.9550   -3.3400    1.6840 c         1 MOL      0.634830
     79 O14        -2.9990   -2.1590    1.3560 o         1 MOL     -0.674353
     80 C27        -4.1730   -5.3820    0.7540 c3        1 MOL     -0.096236
     81 C28        -3.9170   -5.2010   -0.7170 c3        1 MOL     -0.120124
     82 C29        -3.6750   -6.5930   -1.3420 c         1 MOL      0.694369
     83 N8         -3.4800   -6.5440   -2.5960 n         1 MOL     -0.807582
     84 O15        -3.6520   -7.6490   -0.7670 o         1 MOL     -0.602875
     85 H33        -5.0890   -2.5670    0.5080 hn        1 MOL      0.233345
     86 H34        -4.4820   -4.4570    2.6700 h1        1 MOL      0.062242
     87 H35        -4.9780   -6.1080    0.9150 hc        1 MOL      0.052530
     88 H36        -3.2680   -5.8920    1.0760 hc        1 MOL      0.052530
     89 H37        -3.0750   -4.5140   -0.8660 hc        1 MOL      0.065839
     90 H38        -4.7860   -4.7480   -1.1860 hc        1 MOL      0.065839
     91 H39        -3.6290   -5.6550   -3.0640 hn        1 MOL      0.361484
     92 H40        -3.0030   -7.3160   -3.0380 hn        1 MOL      0.361484
     93 N9         -1.8060   -3.8620    2.1570 n         1 MOL     -0.372911
     94 C30        -0.5790   -3.1400    2.4740 c3        1 MOL      0.081434
     95 C31         0.5720   -3.4280    1.4510 c         1 MOL      0.391894
     96 O16         0.8870   -4.5800    1.2110 o         1 MOL     -0.581923
     97 C32        -0.0580   -3.4850    3.8540 c3        1 MOL      0.075993
     98 C33         1.3740   -2.8010    4.1470 c3        1 MOL     -0.242322
     99 C34        -1.1060   -3.0120    4.8700 c3        1 MOL     -0.242322
    100 H41        -1.8390   -4.8740    2.2240 hn        1 MOL      0.257878
    101 H42        -0.7920   -2.0660    2.5130 h1        1 MOL      0.184389
    102 H43         0.0540   -4.5650    3.9370 hc        1 MOL      0.007326
    103 H44         2.1700   -3.2610    3.5580 hc        1 MOL      0.052686
    104 H45         1.3800   -1.7630    3.7940 hc        1 MOL      0.052686
    105 H46         1.7200   -3.0060    5.1580 hc        1 MOL      0.052686
    106 H47        -1.0880   -1.9260    4.9150 hc        1 MOL      0.052686
    107 H48        -2.1080   -3.2580    4.5440 hc        1 MOL      0.052686
    108 H49        -0.9010   -3.4340    5.8550 hc        1 MOL      0.052686
    109 N10         1.1840   -2.3980    0.9000 n         1 MOL     -0.037186
    110 C35         2.3420   -2.5420   -0.0010 c3        1 MOL      0.088023
    111 C36         3.7000   -2.3850    0.7190 c         1 MOL      0.031596
    112 O17         3.7200   -1.7440    1.7620 o         1 MOL     -0.108525
    113 C37         2.1930   -1.5310   -1.1370 c3        1 MOL     -0.158253
    114 C38         3.4160   -1.2780   -1.9800 c         1 MOL      0.596720
    115 N11         3.8790   -2.2430   -2.6980 n         1 MOL     -0.680128
    116 O18         3.9370   -0.2080   -2.0210 o         1 MOL     -0.507957
    117 H50         0.7610   -1.4800    1.0020 hn        1 MOL     -0.026298
    118 H51         2.4010   -3.4980   -0.5290 h1        1 MOL      0.029353
    119 H52         2.0200   -0.5540   -0.6720 hc        1 MOL      0.106298
    120 H53         1.3510   -1.8220   -1.7560 hc        1 MOL      0.106298
    121 H54         3.4720   -3.1410   -2.8850 hn        1 MOL      0.316248
    122 H55         4.6050   -1.9020   -3.3030 hn        1 MOL      0.316248
    123 N12         4.7970   -2.7550    0.0790 n         1 MOL     -0.041662
    124 C39         6.1540   -2.7500    0.6490 c3        1 MOL      0.032108
    125 C40         6.7620   -1.2830    0.6640 c         1 MOL      0.357223
    126 O19         7.7170   -1.0370    1.3400 o         1 MOL     -0.518779
    127 C41         7.0100   -3.6840   -0.1920 c3        1 MOL     -0.085319
    128 C42         7.4800   -3.2780   -1.5940 ca        1 MOL     -0.081009
    129 C43         7.0380   -3.9540   -2.7230 ca        1 MOL      0.012711
    130 C44         8.3930   -2.2000   -1.7650 ca        1 MOL      0.012711
    131 C45         7.6650   -3.6900   -3.9880 ca        1 MOL     -0.465166
    132 C46         8.8500   -1.8730   -3.0220 ca        1 MOL     -0.465166
    133 C47         8.6170   -2.6460   -4.1170 ca        1 MOL      0.584164
    134 O20         9.3210   -2.5010   -5.2700 oh        1 MOL     -0.602579
    135 H56         4.6480   -3.0980   -0.8620 hn        1 MOL      0.112958
    136 H57         6.0170   -3.0980    1.6760 h1        1 MOL      0.062761
    137 H58         6.4070   -4.5980   -0.2570 hc        1 MOL      0.031280
    138 H59         7.9220   -3.9410    0.3470 hc        1 MOL      0.031280
    139 H60         6.2750   -4.7220   -2.7330 ha        1 MOL      0.110840
    140 H61         8.7860   -1.6770   -0.9130 ha        1 MOL      0.110840
    141 H62         7.4570   -4.2660   -4.8800 ha        1 MOL      0.158754
    142 H63         9.6080   -1.1070   -3.1540 ha        1 MOL      0.158754
    143 H64         9.8190   -1.6860   -5.1710 ho        1 MOL      0.419023
    144 N13         6.1640   -0.2740   -0.0420 n         1 MOL      0.209313
    145 C48         6.5230    1.1110    0.1410 c3        1 MOL     -0.220438
    146 C49         5.6810    1.8130    1.2260 c         1 MOL      0.380675
    147 O21         6.0110    2.9480    1.6810 o         1 MOL     -0.500906
    148 C50         6.5210    1.8650   -1.1950 c3        1 MOL      0.128887
    149 C51         7.6490    1.6880   -2.1700 c3        1 MOL     -0.220528
    150 C52         8.9510    2.0960   -1.5820 c         1 MOL      0.647691
    151 O22         9.8720    1.2500   -1.4980 o         1 MOL     -0.703716
    152 O23         9.1120    3.2980   -1.2120 o         1 MOL     -0.703716
    153 H65         5.5760   -0.4970   -0.8370 hn        1 MOL      0.041471
    154 H66         7.5360    1.2180    0.5360 h1        1 MOL      0.162776
    155 H67         6.3770    2.9380   -1.0410 hc        1 MOL      0.004889
    156 H68         5.5960    1.5810   -1.6950 hc        1 MOL      0.004889
    157 H69         7.3450    2.2190   -3.0800 hc        1 MOL      0.018145
    158 H70         7.6950    0.6240   -2.4080 hc        1 MOL      0.018145
    159 N14         4.5530    1.1650    1.6710 n         1 MOL     -0.177626
    160 C53         3.6630    1.5710    2.7420 c3        1 MOL     -0.005971
    161 C54         4.0630    0.9630    4.0900 c         1 MOL      0.447135
    162 O24         4.1040    1.6930    5.0570 o         1 MOL     -0.577016
    163 C55         2.1760    1.2470    2.4130 c3        1 MOL      0.103437
    164 C56         1.5420    1.7880    1.1180 c3        1 MOL     -0.007061
    165 C57         0.2310    1.1480    0.7160 c         1 MOL      0.648409
    166 O25        -0.5780    1.7550    0.0260 o         1 MOL     -0.701619
    167 O26        -0.2530    0.0870    1.1980 o         1 MOL     -0.701619
    168 H71         4.3410    0.2900    1.2180 hn        1 MOL     -0.029873
    169 H72         3.5570    2.6500    2.9020 h1        1 MOL      0.053370
    170 H73         1.5290    1.6150    3.2040 hc        1 MOL     -0.009819
    171 H74         1.9850    0.1670    2.4850 hc        1 MOL     -0.009819
    172 H75         2.1920    1.6750    0.2500 hc        1 MOL      0.010838
    173 H76         1.3760    2.8600    1.2640 hc        1 MOL      0.010838
    174 N15         4.4630   -0.2550    4.1360 n         1 MOL      0.007726
    175 C58         4.9840   -0.9060    5.3360 c3        1 MOL     -0.151566
    176 H77         5.0430   -1.9820    5.1690 h1        1 MOL      0.068361
    177 H78         5.9780   -0.5180    5.5580 h1        1 MOL      0.068361
    178 H79         4.3180   -0.7050    6.1770 h1        1 MOL      0.068361
    179 H80         4.2620   -0.8000    3.3100 hn        1 MOL     -0.083210
    180 Ca1        -2.6320    0.1580    0.2180 Ca        1 MOL      1.767736
    181 O27        -2.6190    0.3240    2.9020 oh        1 MOL     -0.868060
    182 H81        -3.1700   -0.1590    3.5110 ho        1 MOL      0.406577
    183 H82        -2.0220    0.8250    3.4530 ho        1 MOL      0.406577
    184 O28        -5.2460    0.2900    1.2600 oh        1 MOL     -0.868060
    185 H83        -5.4890    1.2120    1.3130 ho        1 MOL      0.406577
    186 H84        -5.5830   -0.0890    2.0770 ho        1 MOL      0.406577
    187 O29        -1.3370   -1.4000   -1.4580 oh        1 MOL     -0.868060
    188 H85        -1.8910   -2.1430   -1.6840 ho        1 MOL      0.406577
    189 H86        -1.4960   -0.7660   -2.1630 ho        1 MOL      0.406577
@<TRIPOS>BOND
     1    1    2 1   
     2    1    4 1   
     3    1    5 1   
     4    1    6 1   
     5    2    3 2   
     6    2    7 1   
     7    7    8 1   
     8    7   15 1   
     9    8    9 1   
    10    8   11 1   
    11    8   16 1   
    12    9   10 2   
    13    9   19 1   
    14   11   12 1   
    15   11   17 1   
    16   11   18 1   
    17   12   13 1   
    18   12   14 1   
    19   19   20 1   
    20   19   27 1   
    21   20   21 1   
    22   20   23 1   
    23   20   28 1   
    24   21   22 2   
    25   21   38 1   
    26   23   24 1   
    27   23   25 1   
    28   23   29 1   
    29   24   26 1   
    30   24   30 1   
    31   24   31 1   
    32   25   32 1   
    33   25   33 1   
    34   25   34 1   
    35   26   35 1   
    36   26   36 1   
    37   26   37 1   
    38   38   39 1   
    39   38   46 1   
    40   39   40 1   
    41   39   42 1   
    42   39   47 1   
    43   40   41 2   
    44   40   50 1   
    45   42   43 1   
    46   42   48 1   
    47   42   49 1   
    48   43   44 1   
    49   43   45 1   
    50   50   51 1   
    51   50   54 1   
    52   51   52 1   
    53   51   55 1   
    54   51   56 1   
    55   52   53 2   
    56   52   57 1   
    57   57   58 1   
    58   57   65 1   
    59   58   59 1   
    60   58   61 1   
    61   58   66 1   
    62   59   60 2   
    63   59   69 1   
    64   61   62 1   
    65   61   67 1   
    66   61   68 1   
    67   62   63 1   
    68   62   64 1   
    69   69   70 1   
    70   69   73 1   
    71   70   71 1   
    72   70   74 1   
    73   70   75 1   
    74   71   72 2   
    75   71   76 1   
    76   76   77 1   
    77   76   85 1   
    78   77   78 1   
    79   77   80 1   
    80   77   86 1   
    81   78   79 2   
    82   78   93 1   
    83   80   81 1   
    84   80   87 1   
    85   80   88 1   
    86   81   82 1   
    87   81   89 1   
    88   81   90 1   
    89   82   83 1   
    90   82   84 2   
    91   83   91 1   
    92   83   92 1   
    93   93   94 1   
    94   93  100 1   
    95   94   95 1   
    96   94   97 1   
    97   94  101 1   
    98   95   96 2   
    99   95  109 1   
   100   97   98 1   
   101   97   99 1   
   102   97  102 1   
   103   98  103 1   
   104   98  104 1   
   105   98  105 1   
   106   99  106 1   
   107   99  107 1   
   108   99  108 1   
   109  109  110 1   
   110  109  117 1   
   111  110  111 1   
   112  110  113 1   
   113  110  118 1   
   114  111  112 2   
   115  111  123 1   
   116  113  114 1   
   117  113  119 1   
   118  113  120 1   
   119  114  115 1   
   120  114  116 2   
   121  115  121 1   
   122  115  122 1   
   123  123  124 1   
   124  123  135 1   
   125  124  125 1   
   126  124  127 1   
   127  124  136 1   
   128  125  126 2   
   129  125  144 1   
   130  127  128 1   
   131  127  137 1   
   132  127  138 1   
   133  128  129 ar  
   134  128  130 ar  
   135  129  131 ar  
   136  129  139 1   
   137  130  132 ar  
   138  130  140 1   
   139  131  133 ar  
   140  131  141 1   
   141  132  133 ar  
   142  132  142 1   
   143  133  134 1   
   144  134  143 1   
   145  144  145 1   
   146  144  153 1   
   147  145  146 1   
   148  145  148 1   
   149  145  154 1   
   150  146  147 2   
   151  146  159 1   
   152  148  149 1   
   153  148  155 1   
   154  148  156 1   
   155  149  150 1   
   156  149  157 1   
   157  149  158 1   
   158  150  151 1   
   159  150  152 1   
   160  159  160 1   
   161  159  168 1   
   162  160  161 1   
   163  160  163 1   
   164  160  169 1   
   165  161  162 2   
   166  161  174 1   
   167  163  164 1   
   168  163  170 1   
   169  163  171 1   
   170  164  165 1   
   171  164  172 1   
   172  164  173 1   
   173  165  166 1   
   174  165  167 1   
   175  174  175 1   
   176  174  179 1   
   177  175  176 1   
   178  175  177 1   
   179  175  178 1   
   180  181  182 1   
   181  181  183 1   
   182  184  185 1   
   183  184  186 1   
   184  187  188 1   
   185  187  189 1   
@<TRIPOS>SUBSTRUCTURE
     1 MOL         1 TEMP              0 ****  ****    0 ROOT
