@<TRIPOS>MOLECULE
MOL
  183   181     1     0     0
SMALL
resp


@<TRIPOS>ATOM
      1 C1         -0.8410    2.6140    6.0540 c3        1 MOL     -0.376821
      2 C2         -1.2810    2.3240    4.5950 c         1 MOL      0.747504
      3 O1         -0.4490    2.6580    3.7600 o         1 MOL     -0.559743
      4 H1         -0.0910    3.4050    6.0570 hc        1 MOL      0.084534
      5 H2         -1.7060    2.9320    6.6380 hc        1 MOL      0.084534
      6 H3         -0.4180    1.7110    6.4930 hc        1 MOL      0.084534
      7 N1         -2.4790    1.7700    4.3390 n         1 MOL     -0.805422
      8 C3         -2.9880    1.6470    2.9880 c3        1 MOL      0.567706
      9 C4         -3.3120    2.9760    2.2740 c         1 MOL      0.332795
     10 O2         -4.4340    3.4830    2.3740 o         1 MOL     -0.543195
     11 C5         -4.2140    0.7810    3.1040 c3        1 MOL     -0.377102
     12 C6         -4.8200    0.3270    1.7450 c         1 MOL      0.856213
     13 O3         -5.9110   -0.3590    1.7880 o         1 MOL     -0.697940
     14 O4         -4.2600    0.5840    0.6660 o         1 MOL     -0.697940
     15 H4         -3.0590    1.5270    5.1320 hn        1 MOL      0.366208
     16 H5         -2.3040    1.1330    2.3290 h1        1 MOL     -0.046044
     17 H6         -4.9690    1.3470    3.6590 hc        1 MOL      0.059677
     18 H7         -3.9480   -0.0840    3.7040 hc        1 MOL      0.059677
     19 N2         -2.3960    3.5030    1.4600 n         1 MOL     -0.129821
     20 C7         -2.5260    4.8230    0.8570 c3        1 MOL     -0.135277
     21 C8         -3.6360    4.9160   -0.2110 c         1 MOL      0.580229
     22 O5         -4.1450    6.0130   -0.4220 o         1 MOL     -0.597062
     23 C9         -1.0610    5.1080    0.2800 c3        1 MOL      0.240564
     24 C10         0.1030    5.1540    1.2690 c3        1 MOL     -0.139571
     25 C11        -0.9350    6.2690   -0.6940 c3        1 MOL     -0.439879
     26 C12         0.0810    6.0780    2.3980 c3        1 MOL     -0.233564
     27 H8         -1.5260    3.0070    1.3540 hn        1 MOL      0.224463
     28 H9         -2.7430    5.4950    1.6850 h1        1 MOL      0.067817
     29 H10        -0.8980    4.2240   -0.3430 hc        1 MOL      0.023357
     30 H11         0.9960    5.4730    0.7350 hc        1 MOL      0.085687
     31 H12         0.1230    4.1510    1.6930 hc        1 MOL      0.085687
     32 H13        -0.0640    6.0680   -1.3200 hc        1 MOL      0.109513
     33 H14        -1.7890    6.3660   -1.3630 hc        1 MOL      0.109513
     34 H15        -0.9710    7.1590   -0.0680 hc        1 MOL      0.109513
     35 H16        -0.1600    7.0620    1.9800 hc        1 MOL      0.052014
     36 H17        -0.6510    5.7020    3.1010 hc        1 MOL      0.052014
     37 H18         1.0500    6.0830    2.8860 hc        1 MOL      0.052014
     38 N3         -4.0230    3.8130   -0.8530 n         1 MOL     -0.322921
     39 C13        -4.9710    3.8380   -1.9640 c3        1 MOL     -0.016136
     40 C14        -6.0580    2.8890   -1.7550 c         1 MOL      0.473753
     41 O6         -6.9470    2.8860   -2.5850 o         1 MOL     -0.552702
     42 C15        -4.2090    3.7250   -3.2930 c3        1 MOL     -0.131376
     43 C16        -3.2180    2.5000   -3.3740 c         1 MOL      0.782114
     44 O7         -3.2510    1.6670   -2.4380 o         1 MOL     -0.686634
     45 O8         -2.4980    2.4850   -4.3720 o         1 MOL     -0.686634
     46 H19        -3.6780    2.9390   -0.4860 hn        1 MOL      0.029089
     47 H20        -5.4600    4.8090   -1.9640 h1        1 MOL      0.095522
     48 H21        -3.6280    4.6230   -3.4560 hc        1 MOL      0.028000
     49 H22        -4.9160    3.6160   -4.1190 hc        1 MOL      0.028000
     50 N4         -6.2790    2.0860   -0.7210 n         1 MOL     -0.007299
     51 C17        -7.5240    1.4280   -0.4310 c3        1 MOL     -0.457741
     52 C18        -7.7820    0.2000   -1.3300 c         1 MOL      0.733607
     53 O9         -8.5110    0.2410   -2.3450 o         1 MOL     -0.590050
     54 H23        -5.4940    1.8590   -0.1190 hn        1 MOL      0.124812
     55 H24        -8.2700    2.2040   -0.5960 h1        1 MOL      0.133321
     56 H25        -7.5780    1.0350    0.5850 h1        1 MOL      0.133321
     57 N5         -7.2140   -0.9010   -0.8360 n         1 MOL     -0.516012
     58 C19        -7.2290   -2.3250   -1.3070 c3        1 MOL      0.136037
     59 C20        -6.9450   -3.4390   -0.2230 c         1 MOL      0.445316
     60 O10        -7.1970   -4.6130   -0.4700 o         1 MOL     -0.559280
     61 C21        -6.3060   -2.5660   -2.4230 c3        1 MOL     -0.127003
     62 C22        -4.8590   -2.1490   -2.0840 c         1 MOL      0.790223
     63 O11        -4.2250   -1.3310   -2.7880 o         1 MOL     -0.783074
     64 O12        -4.3060   -2.4690   -1.0450 o         1 MOL     -0.783074
     65 H26        -6.7520   -0.7410    0.0490 hn        1 MOL      0.176900
     66 H27        -8.2550   -2.4630   -1.6380 h1        1 MOL      0.035713
     67 H28        -6.5710   -1.8600   -3.2030 hc        1 MOL      0.028512
     68 H29        -6.3820   -3.5810   -2.8240 hc        1 MOL      0.028512
     69 N6         -6.6640   -3.0240    1.0150 n         1 MOL     -0.292581
     70 C23        -6.4060   -3.8660    2.2190 c3        1 MOL     -0.173946
     71 C24        -4.9950   -4.3760    2.3150 c         1 MOL      0.583921
     72 O13        -4.7720   -5.1040    3.2960 o         1 MOL     -0.613435
     73 H30        -6.4320   -2.0570    1.1330 hn        1 MOL      0.274384
     74 H31        -7.1720   -4.6390    2.1990 h1        1 MOL      0.102060
     75 H32        -6.7000   -3.2240    3.0580 h1        1 MOL      0.102060
     76 N7         -4.0190   -4.0390    1.4450 n         1 MOL     -0.284409
     77 C25        -2.6230   -4.4030    1.4700 c3        1 MOL      0.063580
     78 C26        -1.7730   -3.1910    1.4440 c         1 MOL      0.517186
     79 O14        -2.2920   -2.0900    1.1370 o         1 MOL     -0.592141
     80 C27        -2.3490   -5.5180    0.4720 c3        1 MOL      0.075116
     81 C28        -2.6350   -5.2300   -0.9930 c3        1 MOL     -0.248516
     82 C29        -1.6610   -4.2640   -1.6000 c         1 MOL      0.602931
     83 N8         -0.9690   -4.6250   -2.5870 n         1 MOL     -0.677470
     84 O15        -1.4770   -3.1280   -1.2990 o         1 MOL     -0.524756
     85 H33        -4.2860   -3.3200    0.7960 hn        1 MOL      0.211690
     86 H34        -2.3900   -4.9650    2.3800 h1        1 MOL      0.028596
     87 H35        -2.8930   -6.4170    0.7620 hc        1 MOL     -0.004987
     88 H36        -1.3230   -5.8550    0.5850 hc        1 MOL     -0.004987
     89 H37        -3.6510   -4.9020   -1.2350 hc        1 MOL      0.076706
     90 H38        -2.5740   -6.2040   -1.4830 hc        1 MOL      0.076706
     91 H39        -0.9730   -5.5760   -2.9130 hn        1 MOL      0.309859
     92 H40        -0.3110   -3.9270   -2.8990 hn        1 MOL      0.309859
     93 N9         -0.4860   -3.2770    1.7770 n         1 MOL     -0.381619
     94 C30         0.6120   -2.3300    1.8820 c3        1 MOL     -0.023725
     95 C31         1.7550   -2.8720    1.0390 c         1 MOL      0.386132
     96 O16         2.3520   -3.8620    1.4810 o         1 MOL     -0.556795
     97 C32         1.0680   -2.1140    3.3450 c3        1 MOL      0.097257
     98 C33         2.4900   -1.6360    3.6150 c3        1 MOL     -0.188000
     99 C34         0.0600   -1.1900    4.0930 c3        1 MOL     -0.188000
    100 H41        -0.3630   -4.2330    2.0990 hn        1 MOL      0.252714
    101 H42         0.2980   -1.3630    1.4940 h1        1 MOL      0.175619
    102 H43         0.8290   -3.0430    3.8600 hc        1 MOL      0.001964
    103 H44         2.6710   -0.6200    3.2720 hc        1 MOL      0.041964
    104 H45         2.6270   -1.6840    4.6970 hc        1 MOL      0.041964
    105 H46         3.2100   -2.3230    3.1830 hc        1 MOL      0.041964
    106 H47         0.0400   -1.3090    5.1790 hc        1 MOL      0.041964
    107 H48         0.2310   -0.1730    3.7350 hc        1 MOL      0.041964
    108 H49        -0.9120   -1.5900    3.7940 hc        1 MOL      0.041964
    109 N10         1.9640   -2.3030   -0.1110 n         1 MOL     -0.114113
    110 C35         3.1230   -2.4380   -1.0410 c3        1 MOL     -0.022365
    111 C36         4.4230   -1.9060   -0.3650 c         1 MOL      0.469560
    112 O17         4.3760   -1.1520    0.5580 o         1 MOL     -0.295842
    113 C37         2.8210   -1.6870   -2.2980 c3        1 MOL     -0.314492
    114 C38         1.9470   -2.4460   -3.2840 c         1 MOL      0.728080
    115 N11         0.6950   -2.1610   -3.3410 n         1 MOL     -0.662160
    116 O18         2.3390   -3.3380   -3.9670 o         1 MOL     -0.626592
    117 H50         1.3420   -1.5540   -0.3950 hn        1 MOL      0.057959
    118 H51         3.3090   -3.5110   -1.1370 h1        1 MOL      0.080154
    119 H52         3.6930   -1.3100   -2.8420 hc        1 MOL      0.099321
    120 H53         2.3020   -0.7540   -2.0500 hc        1 MOL      0.099321
    121 H54         0.3150   -1.5270   -2.6400 hn        1 MOL      0.337117
    122 H55         0.0650   -2.5100   -4.0460 hn        1 MOL      0.337117
    123 N12         5.6010   -2.3460   -0.8900 n         1 MOL     -0.618502
    124 C39         6.8760   -1.8650   -0.3590 c3        1 MOL      0.291989
    125 C40         7.0580   -0.3400   -0.3610 c         1 MOL      0.525256
    126 O19         7.5350    0.1740    0.6670 o         1 MOL     -0.526312
    127 C41         7.9600   -2.6030   -1.1550 c3        1 MOL     -0.218935
    128 C42         9.2990   -2.0810   -0.7370 ca        1 MOL      0.160219
    129 C43         9.7450   -2.3540    0.5550 ca        1 MOL     -0.331933
    130 C44         9.9790   -1.2260   -1.6370 ca        1 MOL     -0.331933
    131 C45        10.8950   -1.6940    1.0110 ca        1 MOL     -0.077919
    132 C46        11.1810   -0.5690   -1.1530 ca        1 MOL     -0.077919
    133 C47        11.6350   -0.8540    0.1140 ca        1 MOL      0.196581
    134 O20        12.8410   -0.3510    0.5320 oh        1 MOL     -0.498433
    135 H56         5.6760   -2.8960   -1.7370 hn        1 MOL      0.317921
    136 H57         6.8990   -2.1120    0.7070 h1        1 MOL      0.048894
    137 H58         7.9180   -2.4410   -2.2350 hc        1 MOL      0.061122
    138 H59         7.8880   -3.6590   -0.8610 hc        1 MOL      0.061122
    139 H60         9.1790   -2.9980    1.2140 ha        1 MOL      0.182697
    140 H61         9.5410   -0.9800   -2.5960 ha        1 MOL      0.182697
    141 H62        11.2320   -1.9160    2.0060 ha        1 MOL      0.108035
    142 H63        11.7890   -0.0600   -1.8860 ha        1 MOL      0.108035
    143 H64        13.1130    0.3930   -0.0140 ho        1 MOL      0.360900
    144 N13         6.3640    0.4310   -1.2720 n         1 MOL     -0.523453
    145 C48         6.3350    1.8860   -1.1940 c3        1 MOL      0.191582
    146 C49         5.4100    2.3390   -0.0370 c         1 MOL      0.419669
    147 O21         5.7390    3.3650    0.5420 o         1 MOL     -0.521453
    148 C50         6.0650    2.4450   -2.6060 c3        1 MOL     -0.044437
    149 C51         4.6500    2.2610   -3.1200 c3        1 MOL     -0.324411
    150 C52         4.3100    2.8510   -4.4990 c         1 MOL      0.781983
    151 O22         4.5100    2.2390   -5.5300 o         1 MOL     -0.746399
    152 O23         3.7670    3.9820   -4.5650 o         1 MOL     -0.746399
    153 H65         6.0610   -0.0770   -2.0860 hn        1 MOL      0.297375
    154 H66         7.3330    2.3010   -1.0530 h1        1 MOL      0.015927
    155 H67         6.7630    1.8840   -3.2270 hc        1 MOL      0.020725
    156 H68         6.2810    3.5180   -2.5870 hc        1 MOL      0.020725
    157 H69         3.9920    2.7440   -2.4050 hc        1 MOL      0.068722
    158 H70         4.3280    1.2220   -3.0170 hc        1 MOL      0.068722
    159 N14         4.3880    1.5270    0.4050 n         1 MOL     -0.206640
    160 C53         3.5130    1.9130    1.5410 c3        1 MOL     -0.076387
    161 C54         4.1920    1.7850    2.9210 c         1 MOL      0.406956
    162 O24         3.9700    2.5220    3.9120 o         1 MOL     -0.553390
    163 C55         2.1330    1.1890    1.3600 c3        1 MOL     -0.044952
    164 C56         1.3800    1.4720    0.0680 c3        1 MOL      0.133531
    165 C57         0.1090    0.7110   -0.0940 c         1 MOL      0.745772
    166 O25        -0.9170    0.9540    0.5890 o         1 MOL     -0.748061
    167 O26        -0.0050   -0.2660   -0.8780 o         1 MOL     -0.748061
    168 H71         4.2570    0.6480   -0.0630 hn        1 MOL      0.192280
    169 H72         3.1320    2.9290    1.4980 h1        1 MOL      0.082531
    170 H73         1.4560    1.4660    2.1620 hc        1 MOL      0.070859
    171 H74         2.3120    0.1220    1.3620 hc        1 MOL      0.070859
    172 H75         2.0390    1.2840   -0.7790 hc        1 MOL     -0.076000
    173 H76         0.9680    2.4800    0.1110 hc        1 MOL     -0.076000
    174 N15         5.0750    0.8340    2.9910 n         1 MOL      0.014459
    175 C58         5.9230    0.4010    4.1060 c3        1 MOL     -0.191997
    176 H77         6.6570    1.1760    4.3270 h1        1 MOL      0.073300
    177 H78         5.3040    0.2270    4.9870 h1        1 MOL      0.073300
    178 H79         6.4380   -0.5200    3.8360 h1        1 MOL      0.073300
    179 H80         5.1120    0.2320    2.1780 hn        1 MOL      0.024988
    180 Ca1        -2.6060   -0.5010   -0.9810 Ca        1 MOL      1.787110
    181 O27        -1.5260   -0.2180   -3.5980 oh        1 MOL     -0.888610
    182 H81        -1.5300   -0.7870   -4.3710 ho        1 MOL      0.400685
    183 H82        -2.0350    0.5420   -3.8630 ho        1 MOL      0.400685
@<TRIPOS>BOND
     1    1    2 1   
     2    1    4 1   
     3    1    5 1   
     4    1    6 1   
     5    2    3 2   
     6    2    7 1   
     7    7    8 1   
     8    7   15 1   
     9    8    9 1   
    10    8   11 1   
    11    8   16 1   
    12    9   10 2   
    13    9   19 1   
    14   11   12 1   
    15   11   17 1   
    16   11   18 1   
    17   12   13 1   
    18   12   14 1   
    19   19   20 1   
    20   19   27 1   
    21   20   21 1   
    22   20   23 1   
    23   20   28 1   
    24   21   22 2   
    25   21   38 1   
    26   23   24 1   
    27   23   25 1   
    28   23   29 1   
    29   24   26 1   
    30   24   30 1   
    31   24   31 1   
    32   25   32 1   
    33   25   33 1   
    34   25   34 1   
    35   26   35 1   
    36   26   36 1   
    37   26   37 1   
    38   38   39 1   
    39   38   46 1   
    40   39   40 1   
    41   39   42 1   
    42   39   47 1   
    43   40   41 2   
    44   40   50 1   
    45   42   43 1   
    46   42   48 1   
    47   42   49 1   
    48   43   44 1   
    49   43   45 1   
    50   50   51 1   
    51   50   54 1   
    52   51   52 1   
    53   51   55 1   
    54   51   56 1   
    55   52   53 2   
    56   52   57 1   
    57   57   58 1   
    58   57   65 1   
    59   58   59 1   
    60   58   61 1   
    61   58   66 1   
    62   59   60 2   
    63   59   69 1   
    64   61   62 1   
    65   61   67 1   
    66   61   68 1   
    67   62   63 1   
    68   62   64 1   
    69   69   70 1   
    70   69   73 1   
    71   70   71 1   
    72   70   74 1   
    73   70   75 1   
    74   71   72 2   
    75   71   76 1   
    76   76   77 1   
    77   76   85 1   
    78   77   78 1   
    79   77   80 1   
    80   77   86 1   
    81   78   79 2   
    82   78   93 1   
    83   80   81 1   
    84   80   87 1   
    85   80   88 1   
    86   81   82 1   
    87   81   89 1   
    88   81   90 1   
    89   82   83 1   
    90   82   84 2   
    91   83   91 1   
    92   83   92 1   
    93   93   94 1   
    94   93  100 1   
    95   94   95 1   
    96   94   97 1   
    97   94  101 1   
    98   95   96 2   
    99   95  109 1   
   100   97   98 1   
   101   97   99 1   
   102   97  102 1   
   103   98  103 1   
   104   98  104 1   
   105   98  105 1   
   106   99  106 1   
   107   99  107 1   
   108   99  108 1   
   109  109  110 1   
   110  109  117 1   
   111  110  111 1   
   112  110  113 1   
   113  110  118 1   
   114  111  112 2   
   115  111  123 1   
   116  113  114 1   
   117  113  119 1   
   118  113  120 1   
   119  114  115 1   
   120  114  116 2   
   121  115  121 1   
   122  115  122 1   
   123  123  124 1   
   124  123  135 1   
   125  124  125 1   
   126  124  127 1   
   127  124  136 1   
   128  125  126 2   
   129  125  144 1   
   130  127  128 1   
   131  127  137 1   
   132  127  138 1   
   133  128  129 ar  
   134  128  130 ar  
   135  129  131 ar  
   136  129  139 1   
   137  130  132 ar  
   138  130  140 1   
   139  131  133 ar  
   140  131  141 1   
   141  132  133 ar  
   142  132  142 1   
   143  133  134 1   
   144  134  143 1   
   145  144  145 1   
   146  144  153 1   
   147  145  146 1   
   148  145  148 1   
   149  145  154 1   
   150  146  147 2   
   151  146  159 1   
   152  148  149 1   
   153  148  155 1   
   154  148  156 1   
   155  149  150 1   
   156  149  157 1   
   157  149  158 1   
   158  150  151 1   
   159  150  152 1   
   160  159  160 1   
   161  159  168 1   
   162  160  161 1   
   163  160  163 1   
   164  160  169 1   
   165  161  162 2   
   166  161  174 1   
   167  163  164 1   
   168  163  170 1   
   169  163  171 1   
   170  164  165 1   
   171  164  172 1   
   172  164  173 1   
   173  165  166 1   
   174  165  167 1   
   175  174  175 1   
   176  174  179 1   
   177  175  176 1   
   178  175  177 1   
   179  175  178 1   
   180  181  182 1   
   181  181  183 1   
@<TRIPOS>SUBSTRUCTURE
     1 MOL         1 TEMP              0 ****  ****    0 ROOT
