@<TRIPOS>MOLECULE
MOL
  186   183     1     0     0
SMALL
resp


@<TRIPOS>ATOM
      1 C1          0.7360   -2.3990    6.0230 c3        1 MOL     -0.207236
      2 C2          1.1830   -2.3070    4.5740 c         1 MOL      0.708434
      3 O1          0.3630   -2.4900    3.6560 o         1 MOL     -0.603087
      4 H1          1.6010   -2.2890    6.6770 hc        1 MOL      0.043908
      5 H2          0.0190   -1.6050    6.2340 hc        1 MOL      0.043908
      6 H3          0.2690   -3.3680    6.2000 hc        1 MOL      0.043908
      7 N1          2.4350   -1.8870    4.3190 n         1 MOL     -0.660476
      8 C3          2.9160   -1.7390    3.0220 c3        1 MOL      0.199794
      9 C4          3.3840   -3.1710    2.4750 c         1 MOL      0.511268
     10 O2          4.3120   -3.7800    2.9730 o         1 MOL     -0.570300
     11 C5          4.0730   -0.6780    3.0370 c3        1 MOL     -0.456380
     12 C6          4.6790   -0.5510    1.6300 c         1 MOL      0.892075
     13 O3          5.7700    0.0590    1.5900 o         1 MOL     -0.674263
     14 O4          4.0740   -0.9590    0.6170 o         1 MOL     -0.674263
     15 H4          2.9650   -1.6160    5.1370 hn        1 MOL      0.353802
     16 H5          2.1790   -1.3760    2.3080 h1        1 MOL      0.023597
     17 H6          4.9370   -1.0050    3.6180 hc        1 MOL      0.107565
     18 H7          3.6370    0.2990    3.2330 hc        1 MOL      0.107565
     19 N2          2.5820   -3.7650    1.5120 n         1 MOL     -0.005834
     20 C7          2.6770   -5.1180    1.0520 c3        1 MOL     -0.358215
     21 C8          3.6700   -5.2960   -0.0820 c         1 MOL      0.522277
     22 O5          4.1880   -6.4130   -0.2810 o         1 MOL     -0.583613
     23 C9          1.3160   -5.7990    0.8270 c3        1 MOL      0.159624
     24 C10         0.6700   -5.2780   -0.4980 c3        1 MOL      0.189973
     25 C11         0.4430   -5.5380    2.1200 c3        1 MOL     -0.249959
     26 C12        -0.6020   -6.0550   -0.8130 c3        1 MOL     -0.251935
     27 H8          1.8250   -3.2230    1.1140 hn        1 MOL      0.192857
     28 H9          3.0920   -5.6030    1.9360 h1        1 MOL      0.125633
     29 H10         1.3720   -6.8730    0.6630 hc        1 MOL     -0.021662
     30 H11         1.3170   -5.2960   -1.3730 hc        1 MOL      0.001677
     31 H12         0.4940   -4.2180   -0.3360 hc        1 MOL      0.001677
     32 H13         1.0660   -5.6800    2.9990 hc        1 MOL      0.055247
     33 H14         0.0830   -4.5060    2.1500 hc        1 MOL      0.055247
     34 H15        -0.4080   -6.2200    2.1530 hc        1 MOL      0.055247
     35 H16        -0.5060   -7.1010   -0.5170 hc        1 MOL      0.046397
     36 H17        -1.4520   -5.6060   -0.2920 hc        1 MOL      0.046397
     37 H18        -0.6940   -6.0770   -1.8990 hc        1 MOL      0.046397
     38 N3          4.1080   -4.2720   -0.8720 n         1 MOL     -0.240695
     39 C13         4.9330   -4.3860   -2.0640 c3        1 MOL     -0.002367
     40 C14         6.0690   -3.3830   -2.0580 c         1 MOL      0.386023
     41 O6          6.8820   -3.3070   -2.9990 o         1 MOL     -0.501827
     42 C15         4.0430   -4.2880   -3.2850 c3        1 MOL     -0.172954
     43 C16         3.0350   -3.1450   -3.2380 c         1 MOL      0.902989
     44 O7          2.0100   -3.2450   -3.9040 o         1 MOL     -0.756516
     45 O8          3.2240   -2.1370   -2.5710 o         1 MOL     -0.756516
     46 H19         3.7550   -3.3420   -0.7000 hn        1 MOL      0.027831
     47 H20         5.3630   -5.3860   -2.1480 h1        1 MOL      0.098765
     48 H21         3.4280   -5.1870   -3.3200 hc        1 MOL      0.030408
     49 H22         4.6330   -4.2130   -4.1920 hc        1 MOL      0.030408
     50 N4          6.2400   -2.5860   -0.9540 n         1 MOL     -0.031036
     51 C17         7.5140   -2.0810   -0.6040 c3        1 MOL     -0.267766
     52 C18         7.9150   -0.7590   -1.1720 c         1 MOL      0.733636
     53 O9          8.8750   -0.6860   -1.9020 o         1 MOL     -0.621400
     54 H23         5.4920   -2.4830   -0.2850 hn        1 MOL      0.105728
     55 H24         8.2910   -2.8380   -0.7250 h1        1 MOL      0.080354
     56 H25         7.5270   -1.9460    0.4780 h1        1 MOL      0.080354
     57 N5          7.3060    0.3840   -0.8380 n         1 MOL     -0.429221
     58 C19         7.5590    1.6960   -1.3720 c3        1 MOL      0.153506
     59 C20         7.3880    2.7960   -0.2720 c         1 MOL      0.335467
     60 O10         7.3680    4.0140   -0.5960 o         1 MOL     -0.529297
     61 C21         6.6160    1.9340   -2.5540 c3        1 MOL     -0.313398
     62 C22         5.1540    1.5600   -2.2120 c         1 MOL      0.790868
     63 O11         4.5760    0.8020   -3.0570 o         1 MOL     -0.740279
     64 O12         4.5190    1.8870   -1.2020 o         1 MOL     -0.740279
     65 H26         6.5790    0.2970   -0.1420 hn        1 MOL      0.073675
     66 H27         8.5810    1.7600   -1.7470 h1        1 MOL      0.060298
     67 H28         6.8810    1.2820   -3.3850 hc        1 MOL      0.098407
     68 H29         6.5560    2.9930   -2.7810 hc        1 MOL      0.098407
     69 N6          7.1130    2.4870    0.9840 n         1 MOL     -0.232679
     70 C23         6.8130    3.4470    2.0570 c3        1 MOL     -0.014272
     71 C24         5.4450    4.1490    1.9730 c         1 MOL      0.513582
     72 O13         5.2270    5.1810    2.5980 o         1 MOL     -0.627629
     73 H30         7.0430    1.5290    1.2700 hn        1 MOL      0.233812
     74 H31         7.6920    4.0940    2.0830 h1        1 MOL      0.041261
     75 H32         6.7980    2.9380    3.0210 h1        1 MOL      0.041261
     76 N7          4.5380    3.6420    1.1870 n         1 MOL     -0.307103
     77 C25         3.1260    4.0540    0.9670 c3        1 MOL      0.226799
     78 C26         2.2250    2.8320    1.0940 c         1 MOL      0.488554
     79 O14         2.5530    1.6660    0.8990 o         1 MOL     -0.688135
     80 C27         3.0340    4.8080   -0.3920 c3        1 MOL      0.091143
     81 C28         3.4440    6.2680   -0.3940 c3        1 MOL     -0.301526
     82 C29         3.3620    7.0580   -1.6980 c         1 MOL      0.742179
     83 N8          3.8170    8.2650   -1.7840 n         1 MOL     -0.789412
     84 O15         2.8290    6.6090   -2.7060 o         1 MOL     -0.589842
     85 H33         4.8420    2.7700    0.7840 hn        1 MOL      0.273878
     86 H34         2.8770    4.6140    1.8760 h1        1 MOL     -0.001039
     87 H35         1.9640    4.7340   -0.5810 hc        1 MOL     -0.003521
     88 H36         3.5380    4.1520   -1.0990 hc        1 MOL     -0.003521
     89 H37         4.5080    6.3380   -0.1690 hc        1 MOL      0.060089
     90 H38         2.9400    6.8280    0.3980 hc        1 MOL      0.060089
     91 H39         4.1410    8.6470   -0.9060 hn        1 MOL      0.346313
     92 H40         3.5750    8.8030   -2.6070 hn        1 MOL      0.346313
     93 N9          1.0430    3.2080    1.5150 n         1 MOL     -0.342359
     94 C30        -0.1010    2.3810    1.8950 c3        1 MOL     -0.017619
     95 C31        -1.2930    2.9570    1.0990 c         1 MOL      0.505761
     96 O16        -1.7380    4.0060    1.4970 o         1 MOL     -0.560126
     97 C32        -0.3240    2.4410    3.3780 c3        1 MOL      0.399658
     98 C33        -1.5220    1.5690    3.7770 c3        1 MOL     -0.401580
     99 C34         0.9730    1.9170    3.9960 c3        1 MOL     -0.401580
    100 H41         1.0240    4.1840    1.7810 hn        1 MOL      0.234801
    101 H42         0.0600    1.3290    1.6720 h1        1 MOL      0.175269
    102 H43        -0.5070    3.4780    3.6510 hc        1 MOL     -0.075594
    103 H44        -1.7330    1.7500    4.8260 hc        1 MOL      0.081207
    104 H45        -2.4040    1.9780    3.2990 hc        1 MOL      0.081207
    105 H46        -1.4200    0.5230    3.4880 hc        1 MOL      0.081207
    106 H47         1.7200    2.6910    3.8370 hc        1 MOL      0.081207
    107 H48         0.7290    1.8500    5.0620 hc        1 MOL      0.081207
    108 H49         1.0900    0.9270    3.5540 hc        1 MOL      0.081207
    109 N10        -1.6880    2.2720    0.0220 n         1 MOL     -0.393317
    110 C35        -2.8880    2.5440   -0.6480 c3        1 MOL      0.120576
    111 C36        -4.2310    2.2150    0.0500 c         1 MOL      0.277414
    112 O17        -4.2180    1.5070    1.0490 o         1 MOL     -0.264994
    113 C37        -2.7700    1.8270   -2.0240 c3        1 MOL     -0.322917
    114 C38        -3.9570    2.0460   -2.9040 c         1 MOL      0.601876
    115 N11        -4.2020    3.2530   -3.2380 n         1 MOL     -0.700370
    116 O18        -4.8350    1.1840   -3.0560 o         1 MOL     -0.514232
    117 H50        -1.1420    1.4680   -0.2510 hn        1 MOL      0.253063
    118 H51        -2.9330    3.6220   -0.8320 h1        1 MOL      0.038228
    119 H52        -2.8190    0.7630   -1.7990 hc        1 MOL      0.143352
    120 H53        -1.8540    2.0090   -2.5900 hc        1 MOL      0.143352
    121 H54        -3.7420    4.0690   -2.8640 hn        1 MOL      0.333030
    122 H55        -5.1780    3.3510   -3.4700 hn        1 MOL      0.333030
    123 N12        -5.3930    2.6380   -0.4630 n         1 MOL     -0.377656
    124 C39        -6.6440    1.9930    0.0090 c3        1 MOL      0.137799
    125 C40        -6.7000    0.4540   -0.1080 c         1 MOL      0.845987
    126 O19        -6.9850   -0.1740    0.8820 o         1 MOL     -0.613100
    127 C41        -7.8650    2.5360   -0.7770 c3        1 MOL     -0.323094
    128 C42        -9.2060    2.0490   -0.2280 ca        1 MOL      0.041369
    129 C43        -9.6230    2.4740    1.0460 ca        1 MOL     -0.150551
    130 C44        -9.9580    1.1500   -0.9930 ca        1 MOL     -0.150551
    131 C45       -10.8850    2.0530    1.4980 ca        1 MOL     -0.260087
    132 C46       -11.2130    0.7720   -0.4530 ca        1 MOL     -0.260087
    133 C47       -11.7160    1.2410    0.7470 ca        1 MOL      0.392058
    134 O20       -12.9390    0.7750    1.1550 oh        1 MOL     -0.602052
    135 H56        -5.4610    3.3010   -1.2190 hn        1 MOL      0.223476
    136 H57        -6.7720    2.2050    1.0730 h1        1 MOL      0.028753
    137 H58        -7.7200    2.1330   -1.7760 hc        1 MOL      0.099008
    138 H59        -7.8010    3.6230   -0.6350 hc        1 MOL      0.099008
    139 H60        -8.9060    3.0310    1.6240 ha        1 MOL      0.136080
    140 H61        -9.6320    0.8810   -1.9910 ha        1 MOL      0.136080
    141 H62       -11.2090    2.3790    2.4730 ha        1 MOL      0.135590
    142 H63       -11.7370    0.0600   -1.0670 ha        1 MOL      0.135590
    143 H64       -13.1200   -0.0710    0.7390 ho        1 MOL      0.419471
    144 N13        -6.2910   -0.2310   -1.1720 n         1 MOL     -0.527791
    145 C48        -6.2740   -1.7250   -1.2510 c3        1 MOL      0.059634
    146 C49        -5.3600   -2.3690   -0.1520 c         1 MOL      0.327998
    147 O21        -5.5790   -3.4740    0.3290 o         1 MOL     -0.507333
    148 C50        -5.7270   -2.0070   -2.6500 c3        1 MOL      0.025617
    149 C51        -6.6520   -1.5340   -3.7720 c3        1 MOL     -0.153014
    150 C52        -7.9410   -2.3230   -3.8490 c         1 MOL      0.648352
    151 O22        -7.9680   -3.4130   -4.4740 o         1 MOL     -0.710749
    152 O23        -9.0090   -1.9200   -3.3120 o         1 MOL     -0.710749
    153 H65        -5.8440    0.2770   -1.9230 hn        1 MOL      0.221756
    154 H66        -7.3110   -2.0280   -1.1450 h1        1 MOL      0.117093
    155 H67        -5.5840   -3.0850   -2.6400 hc        1 MOL      0.005894
    156 H68        -4.7380   -1.5600   -2.6800 hc        1 MOL      0.005894
    157 H69        -6.1330   -1.6800   -4.7180 hc        1 MOL      0.011925
    158 H70        -6.8720   -0.4660   -3.7080 hc        1 MOL      0.011925
    159 N14        -4.3470   -1.6350    0.2980 n         1 MOL     -0.095482
    160 C53        -3.4440   -2.0160    1.4280 c3        1 MOL     -0.282948
    161 C54        -4.1510   -1.6800    2.7780 c         1 MOL      0.597964
    162 O24        -3.9590   -2.4110    3.7390 o         1 MOL     -0.602178
    163 C55        -2.1310   -1.1980    1.2590 c3        1 MOL      0.225509
    164 C56        -1.3870   -1.6350   -0.0620 c3        1 MOL     -0.041518
    165 C57         0.0120   -1.0370   -0.2070 c         1 MOL      0.509285
    166 O25         1.0750   -1.6830   -0.0450 o         1 MOL     -0.614453
    167 O26         0.0590    0.1710   -0.5600 o         1 MOL     -0.614453
    168 H71        -4.2180   -0.7180   -0.1010 hn        1 MOL      0.205907
    169 H72        -3.2050   -3.0850    1.3970 h1        1 MOL      0.163409
    170 H73        -1.5660   -1.4290    2.1580 hc        1 MOL      0.004130
    171 H74        -2.2980   -0.1240    1.2280 hc        1 MOL      0.004130
    172 H75        -2.0210   -1.4520   -0.9340 hc        1 MOL     -0.033625
    173 H76        -1.2490   -2.7150   -0.0150 hc        1 MOL     -0.033625
    174 N15        -4.9360   -0.6030    2.9320 n         1 MOL     -0.002108
    175 C58        -5.7450   -0.2170    4.0970 c3        1 MOL     -0.590282
    176 H77        -6.6570   -0.8130    4.1190 h1        1 MOL      0.177532
    177 H78        -5.1750   -0.3920    5.0100 h1        1 MOL      0.177532
    178 H79        -6.0040    0.8400    4.0260 h1        1 MOL      0.177532
    179 H80        -5.0370   -0.0450    2.0910 hn        1 MOL     -0.014605
    180 Ca1         2.6620    0.0610   -1.2170 Ca        1 MOL      1.700677
    181 O27         1.5430    2.2490   -2.4240 oh        1 MOL     -0.845342
    182 H81         1.1410    1.8350   -3.2020 ho        1 MOL      0.398356
    183 H82         2.0370    2.9800   -2.7830 ho        1 MOL      0.398356
    184 O28         1.1930   -0.6370   -3.3600 oh        1 MOL     -0.845342
    185 H83         0.2820   -0.9360   -3.2910 ho        1 MOL      0.398356
    186 H84         1.7080   -1.4340   -3.4110 ho        1 MOL      0.398356
@<TRIPOS>BOND
     1    1    2 1   
     2    1    4 1   
     3    1    5 1   
     4    1    6 1   
     5    2    3 2   
     6    2    7 1   
     7    7    8 1   
     8    7   15 1   
     9    8    9 1   
    10    8   11 1   
    11    8   16 1   
    12    9   10 2   
    13    9   19 1   
    14   11   12 1   
    15   11   17 1   
    16   11   18 1   
    17   12   13 1   
    18   12   14 1   
    19   19   20 1   
    20   19   27 1   
    21   20   21 1   
    22   20   23 1   
    23   20   28 1   
    24   21   22 2   
    25   21   38 1   
    26   23   24 1   
    27   23   25 1   
    28   23   29 1   
    29   24   26 1   
    30   24   30 1   
    31   24   31 1   
    32   25   32 1   
    33   25   33 1   
    34   25   34 1   
    35   26   35 1   
    36   26   36 1   
    37   26   37 1   
    38   38   39 1   
    39   38   46 1   
    40   39   40 1   
    41   39   42 1   
    42   39   47 1   
    43   40   41 2   
    44   40   50 1   
    45   42   43 1   
    46   42   48 1   
    47   42   49 1   
    48   43   44 1   
    49   43   45 1   
    50   50   51 1   
    51   50   54 1   
    52   51   52 1   
    53   51   55 1   
    54   51   56 1   
    55   52   53 2   
    56   52   57 1   
    57   57   58 1   
    58   57   65 1   
    59   58   59 1   
    60   58   61 1   
    61   58   66 1   
    62   59   60 2   
    63   59   69 1   
    64   61   62 1   
    65   61   67 1   
    66   61   68 1   
    67   62   63 1   
    68   62   64 1   
    69   69   70 1   
    70   69   73 1   
    71   70   71 1   
    72   70   74 1   
    73   70   75 1   
    74   71   72 2   
    75   71   76 1   
    76   76   77 1   
    77   76   85 1   
    78   77   78 1   
    79   77   80 1   
    80   77   86 1   
    81   78   79 2   
    82   78   93 1   
    83   80   81 1   
    84   80   87 1   
    85   80   88 1   
    86   81   82 1   
    87   81   89 1   
    88   81   90 1   
    89   82   83 1   
    90   82   84 2   
    91   83   91 1   
    92   83   92 1   
    93   93   94 1   
    94   93  100 1   
    95   94   95 1   
    96   94   97 1   
    97   94  101 1   
    98   95   96 2   
    99   95  109 1   
   100   97   98 1   
   101   97   99 1   
   102   97  102 1   
   103   98  103 1   
   104   98  104 1   
   105   98  105 1   
   106   99  106 1   
   107   99  107 1   
   108   99  108 1   
   109  109  110 1   
   110  109  117 1   
   111  110  111 1   
   112  110  113 1   
   113  110  118 1   
   114  111  112 2   
   115  111  123 1   
   116  113  114 1   
   117  113  119 1   
   118  113  120 1   
   119  114  115 1   
   120  114  116 2   
   121  115  121 1   
   122  115  122 1   
   123  123  124 1   
   124  123  135 1   
   125  124  125 1   
   126  124  127 1   
   127  124  136 1   
   128  125  126 2   
   129  125  144 1   
   130  127  128 1   
   131  127  137 1   
   132  127  138 1   
   133  128  129 ar  
   134  128  130 ar  
   135  129  131 ar  
   136  129  139 1   
   137  130  132 ar  
   138  130  140 1   
   139  131  133 ar  
   140  131  141 1   
   141  132  133 ar  
   142  132  142 1   
   143  133  134 1   
   144  134  143 1   
   145  144  145 1   
   146  144  153 1   
   147  145  146 1   
   148  145  148 1   
   149  145  154 1   
   150  146  147 2   
   151  146  159 1   
   152  148  149 1   
   153  148  155 1   
   154  148  156 1   
   155  149  150 1   
   156  149  157 1   
   157  149  158 1   
   158  150  151 1   
   159  150  152 1   
   160  159  160 1   
   161  159  168 1   
   162  160  161 1   
   163  160  163 1   
   164  160  169 1   
   165  161  162 2   
   166  161  174 1   
   167  163  164 1   
   168  163  170 1   
   169  163  171 1   
   170  164  165 1   
   171  164  172 1   
   172  164  173 1   
   173  165  166 1   
   174  165  167 1   
   175  174  175 1   
   176  174  179 1   
   177  175  176 1   
   178  175  177 1   
   179  175  178 1   
   180  181  182 1   
   181  181  183 1   
   182  184  185 1   
   183  184  186 1   
@<TRIPOS>SUBSTRUCTURE
     1 MOL         1 TEMP              0 ****  ****    0 ROOT
