@<TRIPOS>MOLECULE
MOL
  186   183     1     0     0
SMALL
resp


@<TRIPOS>ATOM
      1 C1         -1.0260    2.6260    6.3320 c3        1 MOL     -0.310002
      2 C2         -1.3570    2.6950    4.8330 c         1 MOL      0.750833
      3 O1         -0.6260    3.3620    4.1410 o         1 MOL     -0.588054
      4 H1         -1.8570    2.1660    6.8670 hc        1 MOL      0.061424
      5 H2         -0.1260    2.0290    6.4780 hc        1 MOL      0.061424
      6 H3         -0.8610    3.6330    6.7150 hc        1 MOL      0.061424
      7 N1         -2.3120    1.9190    4.3560 n         1 MOL     -0.646589
      8 C3         -2.7340    1.8490    2.9710 c3        1 MOL      0.056320
      9 C4         -3.3080    3.1660    2.4520 c         1 MOL      0.569622
     10 O2         -4.3650    3.6790    2.8630 o         1 MOL     -0.578195
     11 C5         -3.8120    0.7050    2.9740 c3        1 MOL      0.029948
     12 C6         -4.3860    0.3870    1.5850 c         1 MOL      0.850961
     13 O3         -5.3960   -0.2460    1.4630 o         1 MOL     -0.736395
     14 O4         -3.6920    0.7460    0.6390 o         1 MOL     -0.736395
     15 H4         -2.8630    1.4310    5.0370 hn        1 MOL      0.334598
     16 H5         -1.9790    1.5440    2.2460 h1        1 MOL      0.069347
     17 H6         -4.6320    0.9830    3.6470 hc        1 MOL     -0.038254
     18 H7         -3.5110   -0.2310    3.4470 hc        1 MOL     -0.038254
     19 N2         -2.6220    3.7120    1.4270 n         1 MOL     -0.245016
     20 C7         -2.8130    5.1290    0.9240 c3        1 MOL     -0.235912
     21 C8         -3.8430    5.2890   -0.2080 c         1 MOL      0.578997
     22 O5         -4.5980    6.2870   -0.2190 o         1 MOL     -0.589932
     23 C9         -1.4340    5.7370    0.4880 c3        1 MOL      0.088610
     24 C10        -0.1530    5.2860    1.2660 c3        1 MOL      0.011983
     25 C11        -1.4440    7.3120    0.5160 c3        1 MOL     -0.147270
     26 C12         1.1180    5.6880    0.5270 c3        1 MOL     -0.126962
     27 H8         -1.8480    3.2030    1.0140 hn        1 MOL      0.132273
     28 H9         -3.1540    5.6750    1.8040 h1        1 MOL      0.122257
     29 H10        -1.3380    5.4710   -0.5710 hc        1 MOL      0.035508
     30 H11        -0.0110    4.2090    1.3700 hc        1 MOL      0.040317
     31 H12        -0.0710    5.5950    2.3070 hc        1 MOL      0.040317
     32 H13        -1.1240    7.7410    1.4670 hc        1 MOL      0.027639
     33 H14        -0.8690    7.7080   -0.3080 hc        1 MOL      0.027639
     34 H15        -2.4120    7.8100    0.3890 hc        1 MOL      0.027639
     35 H16         1.0110    6.7560    0.3700 hc        1 MOL      0.021198
     36 H17         1.9430    5.4740    1.1970 hc        1 MOL      0.021198
     37 H18         1.2030    5.1990   -0.4390 hc        1 MOL      0.021198
     38 N3         -3.9940    4.2520   -1.0380 n         1 MOL     -0.361180
     39 C13        -5.0420    4.1930   -2.1000 c3        1 MOL      0.134488
     40 C14        -6.2600    3.3770   -1.8120 c         1 MOL      0.415527
     41 O6         -7.2910    3.6020   -2.3870 o         1 MOL     -0.567622
     42 C15        -4.3960    3.5760   -3.3200 c3        1 MOL     -0.421505
     43 C16        -3.3200    2.4170   -3.1550 c         1 MOL      0.739973
     44 O7         -3.4310    1.5270   -2.2730 o         1 MOL     -0.674579
     45 O8         -2.3990    2.3020   -3.9890 o         1 MOL     -0.674579
     46 H19        -3.4410    3.4330   -0.8090 hn        1 MOL      0.315472
     47 H20        -5.4550    5.1810   -2.3110 h1        1 MOL      0.076963
     48 H21        -3.8110    4.3950   -3.7480 hc        1 MOL      0.107984
     49 H22        -5.1160    3.1630   -4.0250 hc        1 MOL      0.107984
     50 N4         -6.1960    2.4140   -0.9110 n         1 MOL      0.020910
     51 C17        -7.2220    1.6900   -0.2470 c3        1 MOL     -0.181826
     52 C18        -7.6410    0.3810   -0.9070 c         1 MOL      0.649588
     53 O9         -8.6280    0.2410   -1.6720 o         1 MOL     -0.612760
     54 H23        -5.2650    2.3230   -0.5170 hn        1 MOL      0.033372
     55 H24        -8.1740    2.2270   -0.2000 h1        1 MOL      0.053453
     56 H25        -6.9150    1.4530    0.7670 h1        1 MOL      0.053453
     57 N5         -6.9750   -0.7240   -0.6660 n         1 MOL     -0.507871
     58 C19        -7.1220   -2.0170   -1.2960 c3        1 MOL     -0.045994
     59 C20        -6.8900   -3.1820   -0.3100 c         1 MOL      0.451974
     60 O10        -6.6050   -4.2770   -0.7480 o         1 MOL     -0.486220
     61 C21        -6.1150   -1.9990   -2.4850 c3        1 MOL     -0.041926
     62 C22        -4.6690   -1.9210   -2.2010 c         1 MOL      0.610544
     63 O11        -3.8890   -1.7810   -3.2030 o         1 MOL     -0.707846
     64 O12        -4.2620   -2.1210   -1.0710 o         1 MOL     -0.707846
     65 H26        -6.2190   -0.6810    0.0040 hn        1 MOL      0.258732
     66 H27        -8.1540   -2.1530   -1.6240 h1        1 MOL      0.105060
     67 H28        -6.2910   -1.1730   -3.1740 hc        1 MOL      0.043751
     68 H29        -6.3050   -2.9000   -3.0700 hc        1 MOL      0.043751
     69 N6         -6.9600   -2.9170    1.0180 n         1 MOL     -0.306865
     70 C23        -6.6650   -3.7420    2.1930 c3        1 MOL     -0.113709
     71 C24        -5.3060   -4.4230    2.3480 c         1 MOL      0.613967
     72 O13        -5.1740   -5.4320    3.0690 o         1 MOL     -0.571319
     73 H30        -7.0640   -1.9550    1.3180 hn        1 MOL      0.277563
     74 H31        -7.5020   -4.4310    2.2890 h1        1 MOL      0.053299
     75 H32        -6.7530   -3.0020    3.0020 h1        1 MOL      0.053299
     76 N7         -4.3000   -3.8380    1.5880 n         1 MOL     -0.347284
     77 C25        -2.9320   -4.2650    1.7040 c3        1 MOL     -0.013700
     78 C26        -1.9750   -3.1070    1.6110 c         1 MOL      0.714061
     79 O14        -2.2970   -2.0110    1.1600 o         1 MOL     -0.689445
     80 C27        -2.6570   -5.4490    0.7570 c3        1 MOL     -0.036046
     81 C28        -2.7640   -5.1260   -0.7790 c3        1 MOL     -0.084642
     82 C29        -3.3190   -6.3520   -1.6340 c         1 MOL      0.673272
     83 N8         -3.0290   -6.4320   -2.9510 n         1 MOL     -0.879833
     84 O15        -3.9240   -7.2870   -1.1650 o         1 MOL     -0.546270
     85 H33        -4.5170   -3.1220    0.9140 hn        1 MOL      0.269854
     86 H34        -2.8410   -4.6460    2.7200 h1        1 MOL      0.030359
     87 H35        -3.3990   -6.2140    0.9610 hc        1 MOL      0.004228
     88 H36        -1.6620   -5.8750    0.9160 hc        1 MOL      0.004228
     89 H37        -1.7720   -4.7450   -1.0170 hc        1 MOL      0.054547
     90 H38        -3.4410   -4.3020   -0.9930 hc        1 MOL      0.054547
     91 H39        -2.6890   -5.6490   -3.4850 hn        1 MOL      0.373382
     92 H40        -3.2460   -7.2870   -3.4380 hn        1 MOL      0.373382
     93 N9         -0.7410   -3.3300    2.1120 n         1 MOL     -0.521231
     94 C30         0.3880   -2.3630    2.1480 c3        1 MOL      0.070179
     95 C31         1.5260   -2.9800    1.3700 c         1 MOL      0.484080
     96 O16         2.1480   -3.9460    1.7500 o         1 MOL     -0.569938
     97 C32         0.8260   -1.9970    3.5710 c3        1 MOL      0.342859
     98 C33         1.9230   -0.9270    3.5590 c3        1 MOL     -0.393227
     99 C34        -0.2580   -1.3780    4.3760 c3        1 MOL     -0.393227
    100 H41        -0.6040   -4.2440    2.4940 hn        1 MOL      0.278342
    101 H42         0.0720   -1.4070    1.7140 h1        1 MOL      0.046940
    102 H43         1.2210   -2.9100    4.0200 hc        1 MOL     -0.052260
    103 H44         2.1100   -0.6350    4.5900 hc        1 MOL      0.085933
    104 H45         2.9310   -1.2310    3.2990 hc        1 MOL      0.085933
    105 H46         1.6740   -0.0160    3.0190 hc        1 MOL      0.085933
    106 H47        -1.0600   -2.0840    4.5960 hc        1 MOL      0.085933
    107 H48         0.1120   -1.2220    5.3830 hc        1 MOL      0.085933
    108 H49        -0.5650   -0.4470    3.8920 hc        1 MOL      0.085933
    109 N10         1.7880   -2.3720    0.2190 n         1 MOL     -0.315280
    110 C35         2.9640   -2.6850   -0.5660 c3        1 MOL      0.125960
    111 C36         4.2260   -1.9820   -0.0090 c         1 MOL      0.384696
    112 O17         4.0900   -0.9650    0.6910 o         1 MOL     -0.365725
    113 C37         2.6780   -2.3560   -2.0720 c3        1 MOL     -0.301612
    114 C38         3.9190   -2.5240   -2.9060 c         1 MOL      0.658939
    115 N11         4.4200   -3.7370   -3.2410 n         1 MOL     -0.781198
    116 O18         4.4980   -1.5300   -3.3490 o         1 MOL     -0.501208
    117 H50         1.3310   -1.5450   -0.1270 hn        1 MOL      0.291903
    118 H51         3.2010   -3.7530   -0.4950 h1        1 MOL      0.030003
    119 H52         2.4920   -1.2760   -2.1270 hc        1 MOL      0.099543
    120 H53         1.9000   -3.0300   -2.4190 hc        1 MOL      0.099543
    121 H54         3.9830   -4.6120   -3.0220 hn        1 MOL      0.350884
    122 H55         5.2030   -3.7300   -3.8820 hn        1 MOL      0.350884
    123 N12         5.4800   -2.4540   -0.2970 n         1 MOL     -0.469192
    124 C39         6.7330   -1.8020    0.1300 c3        1 MOL      0.250024
    125 C40         6.8410   -0.2830   -0.1530 c         1 MOL      0.583458
    126 O19         7.3670    0.3960    0.6720 o         1 MOL     -0.496097
    127 C41         7.8920   -2.6050   -0.3870 c3        1 MOL     -0.121967
    128 C42         9.2410   -2.1650    0.1330 ca        1 MOL      0.093210
    129 C43         9.4960   -2.3360    1.4690 ca        1 MOL     -0.226268
    130 C44        10.2420   -1.5900   -0.6700 ca        1 MOL     -0.226268
    131 C45        10.6310   -1.7370    2.0570 ca        1 MOL     -0.221730
    132 C46        11.3240   -0.9040   -0.0740 ca        1 MOL     -0.221730
    133 C47        11.5890   -0.9520    1.3120 ca        1 MOL      0.332764
    134 O20        12.7110   -0.4230    1.8190 oh        1 MOL     -0.495854
    135 H56         5.5610   -3.3030   -0.8500 hn        1 MOL      0.220485
    136 H57         6.6040   -1.9070    1.2060 h1        1 MOL      0.023012
    137 H58         7.9190   -2.4330   -1.4600 hc        1 MOL      0.042350
    138 H59         7.7340   -3.6710   -0.2480 hc        1 MOL      0.042350
    139 H60         8.6910   -2.7520    2.0660 ha        1 MOL      0.146783
    140 H61        10.1130   -1.4500   -1.7390 ha        1 MOL      0.146783
    141 H62        10.8060   -1.7630    3.1230 ha        1 MOL      0.129358
    142 H63        11.9790   -0.4650   -0.8090 ha        1 MOL      0.129358
    143 H64        13.2050    0.0250    1.1290 ho        1 MOL      0.369238
    144 N13         6.3170    0.1340   -1.3300 n         1 MOL     -0.457331
    145 C48         6.1890    1.4880   -1.7330 c3        1 MOL     -0.036202
    146 C49         5.3130    2.3370   -0.8240 c         1 MOL      0.344515
    147 O21         5.5670    3.4720   -0.5560 o         1 MOL     -0.506779
    148 C50         5.7200    1.4880   -3.2450 c3        1 MOL      0.138550
    149 C51         5.7220    2.8230   -3.9230 c3        1 MOL     -0.478651
    150 C52         5.0180    2.6810   -5.2610 c         1 MOL      0.815717
    151 O22         5.7960    2.5540   -6.2530 o         1 MOL     -0.762946
    152 O23         3.7920    2.6260   -5.4150 o         1 MOL     -0.762946
    153 H65         5.8440   -0.5410   -1.8980 hn        1 MOL      0.210351
    154 H66         7.1550    1.9880   -1.8070 h1        1 MOL      0.088413
    155 H67         4.7020    1.0790   -3.2140 hc        1 MOL      0.021853
    156 H68         6.2910    0.7270   -3.7710 hc        1 MOL      0.021853
    157 H69         6.7510    3.1740   -3.9730 hc        1 MOL      0.093048
    158 H70         5.1830    3.5650   -3.3350 hc        1 MOL      0.093048
    159 N14         4.3140    1.7030   -0.1700 n         1 MOL     -0.153734
    160 C53         3.4680    2.2810    0.8940 c3        1 MOL      0.017720
    161 C54         4.1370    2.2870    2.2890 c         1 MOL      0.417146
    162 O24         3.9250    3.1810    3.1390 o         1 MOL     -0.570157
    163 C55         2.1210    1.5090    0.9350 c3        1 MOL     -0.074246
    164 C56         1.3260    1.9420   -0.2290 c3        1 MOL      0.140222
    165 C57         0.0230    1.1350   -0.4370 c         1 MOL      0.548007
    166 O25        -1.1130    1.6680   -0.4040 o         1 MOL     -0.664599
    167 O26         0.1970   -0.0830   -0.7360 o         1 MOL     -0.664599
    168 H71         4.2600    0.7360   -0.4440 hn        1 MOL      0.202282
    169 H72         3.2180    3.3240    0.7240 h1        1 MOL      0.070994
    170 H73         1.5520    1.8190    1.8210 hc        1 MOL      0.047381
    171 H74         2.2820    0.4340    0.9000 hc        1 MOL      0.047381
    172 H75         1.9350    1.7560   -1.1190 hc        1 MOL     -0.013716
    173 H76         1.0770    3.0000   -0.2410 hc        1 MOL     -0.013716
    174 N15         5.0080    1.3470    2.5570 n         1 MOL      0.014924
    175 C58         5.8720    1.0870    3.7490 c3        1 MOL     -0.295441
    176 H77         5.2660    0.6650    4.5520 h1        1 MOL      0.099759
    177 H78         6.6590    0.3820    3.4820 h1        1 MOL      0.099759
    178 H79         6.3200    2.0210    4.0860 h1        1 MOL      0.099759
    179 H80         5.2780    0.7910    1.7590 hn        1 MOL      0.015781
    180 Ca1        -2.3830   -0.4780   -1.1470 Ca        1 MOL      1.780847
    181 O27        -0.6930   -2.5250   -2.1700 oh        1 MOL     -0.927864
    182 H81        -0.8750   -2.8840   -3.0340 ho        1 MOL      0.424605
    183 H82         0.2300   -2.2880   -2.1950 ho        1 MOL      0.424605
    184 O28        -1.0320    0.2140   -3.5640 oh        1 MOL     -0.927864
    185 H83        -1.6080    0.9480   -3.7720 ho        1 MOL      0.424605
    186 H84        -0.3530    0.2410   -4.2460 ho        1 MOL      0.424605
@<TRIPOS>BOND
     1    1    2 1   
     2    1    4 1   
     3    1    5 1   
     4    1    6 1   
     5    2    3 2   
     6    2    7 1   
     7    7    8 1   
     8    7   15 1   
     9    8    9 1   
    10    8   11 1   
    11    8   16 1   
    12    9   10 2   
    13    9   19 1   
    14   11   12 1   
    15   11   17 1   
    16   11   18 1   
    17   12   13 1   
    18   12   14 1   
    19   19   20 1   
    20   19   27 1   
    21   20   21 1   
    22   20   23 1   
    23   20   28 1   
    24   21   22 2   
    25   21   38 1   
    26   23   24 1   
    27   23   25 1   
    28   23   29 1   
    29   24   26 1   
    30   24   30 1   
    31   24   31 1   
    32   25   32 1   
    33   25   33 1   
    34   25   34 1   
    35   26   35 1   
    36   26   36 1   
    37   26   37 1   
    38   38   39 1   
    39   38   46 1   
    40   39   40 1   
    41   39   42 1   
    42   39   47 1   
    43   40   41 2   
    44   40   50 1   
    45   42   43 1   
    46   42   48 1   
    47   42   49 1   
    48   43   44 1   
    49   43   45 1   
    50   50   51 1   
    51   50   54 1   
    52   51   52 1   
    53   51   55 1   
    54   51   56 1   
    55   52   53 2   
    56   52   57 1   
    57   57   58 1   
    58   57   65 1   
    59   58   59 1   
    60   58   61 1   
    61   58   66 1   
    62   59   60 2   
    63   59   69 1   
    64   61   62 1   
    65   61   67 1   
    66   61   68 1   
    67   62   63 1   
    68   62   64 1   
    69   69   70 1   
    70   69   73 1   
    71   70   71 1   
    72   70   74 1   
    73   70   75 1   
    74   71   72 2   
    75   71   76 1   
    76   76   77 1   
    77   76   85 1   
    78   77   78 1   
    79   77   80 1   
    80   77   86 1   
    81   78   79 2   
    82   78   93 1   
    83   80   81 1   
    84   80   87 1   
    85   80   88 1   
    86   81   82 1   
    87   81   89 1   
    88   81   90 1   
    89   82   83 1   
    90   82   84 2   
    91   83   91 1   
    92   83   92 1   
    93   93   94 1   
    94   93  100 1   
    95   94   95 1   
    96   94   97 1   
    97   94  101 1   
    98   95   96 2   
    99   95  109 1   
   100   97   98 1   
   101   97   99 1   
   102   97  102 1   
   103   98  103 1   
   104   98  104 1   
   105   98  105 1   
   106   99  106 1   
   107   99  107 1   
   108   99  108 1   
   109  109  110 1   
   110  109  117 1   
   111  110  111 1   
   112  110  113 1   
   113  110  118 1   
   114  111  112 2   
   115  111  123 1   
   116  113  114 1   
   117  113  119 1   
   118  113  120 1   
   119  114  115 1   
   120  114  116 2   
   121  115  121 1   
   122  115  122 1   
   123  123  124 1   
   124  123  135 1   
   125  124  125 1   
   126  124  127 1   
   127  124  136 1   
   128  125  126 2   
   129  125  144 1   
   130  127  128 1   
   131  127  137 1   
   132  127  138 1   
   133  128  129 ar  
   134  128  130 ar  
   135  129  131 ar  
   136  129  139 1   
   137  130  132 ar  
   138  130  140 1   
   139  131  133 ar  
   140  131  141 1   
   141  132  133 ar  
   142  132  142 1   
   143  133  134 1   
   144  134  143 1   
   145  144  145 1   
   146  144  153 1   
   147  145  146 1   
   148  145  148 1   
   149  145  154 1   
   150  146  147 2   
   151  146  159 1   
   152  148  149 1   
   153  148  155 1   
   154  148  156 1   
   155  149  150 1   
   156  149  157 1   
   157  149  158 1   
   158  150  151 1   
   159  150  152 1   
   160  159  160 1   
   161  159  168 1   
   162  160  161 1   
   163  160  163 1   
   164  160  169 1   
   165  161  162 2   
   166  161  174 1   
   167  163  164 1   
   168  163  170 1   
   169  163  171 1   
   170  164  165 1   
   171  164  172 1   
   172  164  173 1   
   173  165  166 1   
   174  165  167 1   
   175  174  175 1   
   176  174  179 1   
   177  175  176 1   
   178  175  177 1   
   179  175  178 1   
   180  181  182 1   
   181  181  183 1   
   182  184  185 1   
   183  184  186 1   
@<TRIPOS>SUBSTRUCTURE
     1 MOL         1 TEMP              0 ****  ****    0 ROOT
