@<TRIPOS>MOLECULE
MOL
  175   173     1     0     0
SMALL
resp


@<TRIPOS>ATOM
      1 C1          0.3290    4.3080    5.3380 c3        1 MOL     -0.407762
      2 C2         -0.2680    4.2280    3.9330 c         1 MOL      0.724520
      3 O1          0.4430    4.6240    3.0290 o         1 MOL     -0.550255
      4 H1          1.1530    3.6000    5.4230 hc        1 MOL      0.093459
      5 H2          0.6980    5.3170    5.5200 hc        1 MOL      0.093459
      6 H3         -0.4360    4.0630    6.0750 hc        1 MOL      0.093459
      7 N1         -1.4830    3.6850    3.8580 n         1 MOL     -0.625917
      8 C3         -2.1300    3.4380    2.5520 c3        1 MOL      0.189081
      9 C4         -2.3520    4.7160    1.6910 c         1 MOL      0.502985
     10 O2         -2.6120    5.8280    2.1320 o         1 MOL     -0.567745
     11 C5         -3.4880    2.7550    2.8110 c3        1 MOL     -0.150545
     12 C6         -4.2870    2.4920    1.5650 c         1 MOL      0.646394
     13 O3         -5.4120    3.0700    1.4020 o         1 MOL     -0.637885
     14 O4         -3.6960    1.8470    0.6480 o         1 MOL     -0.637885
     15 H4         -1.9890    3.2680    4.6270 hn        1 MOL      0.328629
     16 H5         -1.4650    2.7870    1.9830 h1        1 MOL      0.014030
     17 H6         -4.1280    3.3940    3.4230 hc        1 MOL     -0.001483
     18 H7         -3.3550    1.8010    3.3110 hc        1 MOL     -0.001483
     19 N2         -2.3850    4.5030    0.3800 n         1 MOL     -0.317563
     20 C7         -2.5420    5.4210   -0.6650 c3        1 MOL      0.357203
     21 C8         -3.7220    5.1190   -1.6300 c         1 MOL      0.281186
     22 O5         -3.9170    5.8320   -2.6340 o         1 MOL     -0.521518
     23 C9         -1.1770    5.6310   -1.3610 c3        1 MOL     -0.305217
     24 H8         -2.2020    3.5570    0.0620 hn        1 MOL      0.180962
     25 H9         -2.8340    6.3750   -0.2170 h1        1 MOL      0.000998
     26 H10        -1.0230    4.9720   -2.2170 hc        1 MOL      0.070889
     27 H11        -1.1230    6.6430   -1.7680 hc        1 MOL      0.070889
     28 H12        -0.3350    5.6060   -0.6740 hc        1 MOL      0.070889
     29 N3         -4.4190    3.9370   -1.4330 n         1 MOL     -0.092743
     30 C10        -5.1820    3.3660   -2.5560 c3        1 MOL     -0.118881
     31 C11        -6.3650    2.3890   -2.2680 c         1 MOL      0.427224
     32 O6         -7.2850    2.2670   -3.0700 o         1 MOL     -0.562472
     33 C12        -4.2420    2.7220   -3.6260 c3        1 MOL     -0.011915
     34 C13        -3.1930    1.6420   -3.1550 c         1 MOL      0.692495
     35 O7         -3.5020    0.8920   -2.1770 o         1 MOL     -0.692899
     36 O8         -2.1240    1.5190   -3.7740 o         1 MOL     -0.692899
     37 H13        -4.4710    3.4820   -0.5400 hn        1 MOL      0.083749
     38 H14        -5.5760    4.2680   -3.0140 h1        1 MOL      0.095963
     39 H15        -3.6980    3.5550   -4.0820 hc        1 MOL      0.006618
     40 H16        -4.7450    2.2730   -4.4790 hc        1 MOL      0.006618
     41 N4         -6.5280    1.7560   -1.1180 n         1 MOL     -0.103082
     42 C14        -7.6640    0.9170   -0.7240 c3        1 MOL     -0.163721
     43 C15        -7.6770   -0.4580   -1.4000 c         1 MOL      0.532873
     44 O9         -8.7270   -0.9580   -1.5920 o         1 MOL     -0.554767
     45 H17        -5.8820    1.9620   -0.3650 hn        1 MOL      0.137469
     46 H18        -8.6560    1.3080   -0.9250 h1        1 MOL      0.080344
     47 H19        -7.7340    0.7770    0.3590 h1        1 MOL      0.080344
     48 N5         -6.4520   -1.0070   -1.6330 n         1 MOL     -0.220222
     49 C16        -6.2640   -2.4570   -1.8690 c3        1 MOL     -0.083728
     50 C17        -6.2310   -3.4520   -0.6980 c         1 MOL      0.475263
     51 O10        -6.2390   -4.6900   -0.9260 o         1 MOL     -0.513932
     52 C18        -5.0240   -2.6620   -2.7660 c3        1 MOL     -0.093178
     53 C19        -3.7180   -2.3250   -1.9830 c         1 MOL      0.563544
     54 N6         -2.6530   -2.6750   -2.6350 n         1 MOL     -0.611177
     55 O11        -3.6410   -1.8570   -0.8830 o         1 MOL     -0.629543
     56 H20        -5.6220   -0.4210   -1.6550 hn        1 MOL      0.159208
     57 H21        -7.1030   -2.8770   -2.4360 h1        1 MOL      0.101192
     58 H22        -5.0870   -1.9350   -3.5820 hc        1 MOL      0.058501
     59 H23        -5.0450   -3.6890   -3.1330 hc        1 MOL      0.058501
     60 H24        -2.7880   -3.2050   -3.4870 hn        1 MOL      0.316304
     61 H25        -1.7200   -2.5060   -2.2930 hn        1 MOL      0.316304
     62 N7         -6.1880   -2.9730    0.5950 n         1 MOL     -0.338565
     63 C20        -6.0820   -3.7880    1.8070 c3        1 MOL     -0.146325
     64 C21        -4.6860   -4.3470    2.1130 c         1 MOL      0.489935
     65 O12        -4.6050   -5.1610    2.9860 o         1 MOL     -0.557318
     66 H26        -6.3140   -1.9830    0.7510 hn        1 MOL      0.257816
     67 H27        -6.8520   -4.5530    1.6990 h1        1 MOL      0.090778
     68 H28        -6.2820   -3.2220    2.7270 h1        1 MOL      0.090778
     69 N8         -3.7700   -4.0690    1.2000 n         1 MOL     -0.143164
     70 C22        -2.3250   -4.5760    1.3170 c3        1 MOL     -0.255540
     71 C23        -1.2950   -3.4800    1.3340 c         1 MOL      0.567049
     72 O13        -1.3490   -2.5920    0.4270 o         1 MOL     -0.535783
     73 C24        -2.0260   -5.7020    0.3050 c3        1 MOL      0.544979
     74 C25        -2.5250   -7.1020    0.7330 c3        1 MOL     -0.398522
     75 O14        -2.4240   -5.5230   -1.0050 oh        1 MOL     -0.622603
     76 H29        -3.9090   -3.3610    0.4970 hn        1 MOL      0.211702
     77 H30        -2.1780   -5.0720    2.2750 h1        1 MOL      0.092962
     78 H31        -0.9430   -5.7280    0.2110 h1        1 MOL     -0.040672
     79 H32        -1.9510   -4.7580   -1.3230 ho        1 MOL      0.384548
     80 H33        -3.4370   -7.4440    0.2420 hc        1 MOL      0.099109
     81 H34        -1.7970   -7.8500    0.4320 hc        1 MOL      0.099109
     82 H35        -2.5770   -7.0740    1.8240 hc        1 MOL      0.099109
     83 N9         -0.2780   -3.4950    2.2480 n         1 MOL     -0.510723
     84 C26         0.8880   -2.6130    2.0610 c3        1 MOL     -0.074808
     85 C27         1.6970   -2.9750    0.8260 c         1 MOL      0.625836
     86 O15         2.0700   -4.1370    0.6130 o         1 MOL     -0.609200
     87 C28         1.7860   -2.6560    3.3240 c3        1 MOL      0.050843
     88 C29         1.0070   -1.8460    4.3630 c3        1 MOL      0.185223
     89 C30         3.2040   -2.0140    3.1820 c3        1 MOL     -0.197393
     90 C31         1.6770   -2.0390    5.7090 c3        1 MOL     -0.293241
     91 H36        -0.2770   -4.2860    2.8770 hn        1 MOL      0.313256
     92 H37         0.6070   -1.5720    1.9390 h1        1 MOL     -0.060654
     93 H38         1.8300   -3.6580    3.7370 hc        1 MOL      0.030170
     94 H39        -0.0410   -2.1420    4.4400 hc        1 MOL     -0.027412
     95 H40         0.9500   -0.7770    4.1730 hc        1 MOL     -0.027412
     96 H41         3.8160   -1.9260    4.0800 hc        1 MOL      0.050169
     97 H42         3.6810   -2.6370    2.4220 hc        1 MOL      0.050169
     98 H43         3.1170   -1.0180    2.7560 hc        1 MOL      0.050169
     99 H44         1.0590   -1.4850    6.4220 hc        1 MOL      0.060912
    100 H45         1.8120   -3.0990    5.9250 hc        1 MOL      0.060912
    101 H46         2.6820   -1.6460    5.7580 hc        1 MOL      0.060912
    102 N10         1.9280   -2.0200   -0.0500 n         1 MOL     -0.198972
    103 C32         2.7210   -2.0660   -1.2310 c3        1 MOL     -0.002934
    104 C33         4.1530   -1.6120   -0.8970 c         1 MOL      0.487371
    105 O16         4.3840   -1.0110    0.1650 o         1 MOL     -0.415657
    106 C34         2.0380   -1.1730   -2.2540 c3        1 MOL     -0.339251
    107 C35         0.5720   -1.5640   -2.6010 c         1 MOL      0.755160
    108 O17        -0.3840   -1.1090   -1.9210 o         1 MOL     -0.677721
    109 O18         0.4240   -2.3090   -3.5930 o         1 MOL     -0.677721
    110 H47         1.7450   -1.0900    0.2870 hn        1 MOL      0.180844
    111 H48         2.8340   -3.0610   -1.6560 h1        1 MOL      0.082920
    112 H49         2.6770   -1.1440   -3.1410 hc        1 MOL      0.100745
    113 H50         2.0560   -0.1210   -1.9780 hc        1 MOL      0.100745
    114 N11         5.0970   -1.9110   -1.7450 n         1 MOL     -0.699488
    115 C36         6.4460   -1.4890   -1.3140 c3        1 MOL      0.590892
    116 C37         6.6930    0.0150   -1.2490 c         1 MOL      0.248165
    117 O19         7.5020    0.4020   -0.3660 o         1 MOL     -0.502939
    118 C38         7.4320   -2.0400   -2.2900 c3        1 MOL     -0.358516
    119 C39         8.9470   -1.7690   -2.0250 ca        1 MOL      0.155121
    120 C40         9.4380   -2.1550   -0.7920 ca        1 MOL     -0.150850
    121 C41         9.8630   -1.2460   -2.9370 ca        1 MOL     -0.150850
    122 C42        10.8030   -1.9900   -0.4450 ca        1 MOL     -0.126775
    123 C43        11.2170   -1.0600   -2.6790 ca        1 MOL     -0.126775
    124 C44        11.7110   -1.4150   -1.3950 ca        1 MOL     -0.143354
    125 H51         4.9520   -2.2850   -2.6750 hn        1 MOL      0.366564
    126 H52         6.6760   -1.9440   -0.3450 h1        1 MOL      0.026990
    127 H53         7.2510   -1.6210   -3.2810 hc        1 MOL      0.077388
    128 H54         7.3120   -3.1260   -2.2910 hc        1 MOL      0.077388
    129 H55         8.7920   -2.6420   -0.0710 ha        1 MOL      0.101518
    130 H56         9.5180   -0.9690   -3.9190 ha        1 MOL      0.101518
    131 H57        11.1300   -2.2720    0.5490 ha        1 MOL      0.118611
    132 H58        11.8570   -0.5570   -3.3870 ha        1 MOL      0.118611
    133 H59        12.7120   -1.1670   -1.0950 ha        1 MOL      0.117323
    134 N12         6.0320    0.9410   -1.9150 n         1 MOL     -0.061502
    135 C45         6.2660    2.3760   -1.6150 c3        1 MOL      0.019023
    136 C46         5.6710    2.8800   -0.2810 c         1 MOL      0.285385
    137 O20         6.1490    3.8900    0.1550 o         1 MOL     -0.502920
    138 C47         5.5290    3.1480   -2.7300 c3        1 MOL     -0.070257
    139 C48         5.5320    2.0700   -3.8320 c3        1 MOL     -0.084958
    140 C49         5.1500    0.8550   -3.0350 c3        1 MOL     -0.009658
    141 H60         7.3280    2.6330   -1.5710 h1        1 MOL      0.100535
    142 H61         4.5200    3.4860   -2.5250 hc        1 MOL      0.057719
    143 H62         6.2190    3.9370   -3.0240 hc        1 MOL      0.057719
    144 H63         4.8000    2.4010   -4.5700 hc        1 MOL      0.041829
    145 H64         6.5040    1.9770   -4.3190 hc        1 MOL      0.041829
    146 H65         4.0990    0.7860   -2.7330 h1        1 MOL      0.036120
    147 H66         5.2700   -0.0290   -3.6590 h1        1 MOL      0.036120
    148 N13         4.7770    2.1150    0.3380 n         1 MOL     -0.015140
    149 C50         4.0890    2.4130    1.5620 c3        1 MOL     -0.186392
    150 C51         4.9520    1.8290    2.7200 c         1 MOL      0.419093
    151 O21         4.8800    2.2110    3.8910 o         1 MOL     -0.557019
    152 C52         2.7370    1.7870    1.5020 c3        1 MOL      0.087965
    153 C53         1.8140    2.4450    0.4230 c3        1 MOL     -0.201687
    154 C54         0.4040    1.7040    0.3350 c         1 MOL      0.606170
    155 O22         0.2530    0.6030    0.8660 o         1 MOL     -0.673802
    156 O23        -0.5420    2.1220   -0.3230 o         1 MOL     -0.673802
    157 H67         4.5490    1.2500   -0.1210 hn        1 MOL      0.071820
    158 H68         3.8880    3.4820    1.7050 h1        1 MOL      0.132202
    159 H69         2.3070    1.8910    2.5020 hc        1 MOL      0.050631
    160 H70         2.7850    0.7270    1.2590 hc        1 MOL      0.050631
    161 H71         2.3130    2.2440   -0.5220 hc        1 MOL      0.091795
    162 H72         1.7890    3.5160    0.6180 hc        1 MOL      0.091795
    163 N14         5.7070    0.7490    2.4640 n         1 MOL      0.060860
    164 C55         6.6910    0.1630    3.3550 c3        1 MOL     -0.249067
    165 H73         6.9090   -0.8560    3.0360 h1        1 MOL      0.088416
    166 H74         7.6060    0.7550    3.3280 h1        1 MOL      0.088416
    167 H75         6.2980    0.1470    4.3720 h1        1 MOL      0.088416
    168 H76         5.6660    0.3070    1.5570 hn        1 MOL     -0.002240
    169 Ca1        -1.9920   -0.0520   -0.1980 Ca        1 MOL      1.677510
    170 O24        -4.0110   -0.7590    1.8520 oh        1 MOL     -0.755571
    171 H77        -4.8550   -0.4800    2.2160 ho        1 MOL      0.378318
    172 H78        -3.4380   -0.8300    2.6230 ho        1 MOL      0.378318
    173 O25        -1.5610   -0.1290    2.5910 oh        1 MOL     -0.755571
    174 H79        -1.6660    0.1750    3.4940 ho        1 MOL      0.378318
    175 H80        -0.6600    0.1200    2.3520 ho        1 MOL      0.378318
@<TRIPOS>BOND
     1    1    2 1   
     2    1    4 1   
     3    1    5 1   
     4    1    6 1   
     5    2    3 2   
     6    2    7 1   
     7    7    8 1   
     8    7   15 1   
     9    8    9 1   
    10    8   11 1   
    11    8   16 1   
    12    9   10 2   
    13    9   19 1   
    14   11   12 1   
    15   11   17 1   
    16   11   18 1   
    17   12   13 1   
    18   12   14 1   
    19   19   20 1   
    20   19   24 1   
    21   20   21 1   
    22   20   23 1   
    23   20   25 1   
    24   21   22 2   
    25   21   29 1   
    26   23   26 1   
    27   23   27 1   
    28   23   28 1   
    29   29   30 1   
    30   29   37 1   
    31   30   31 1   
    32   30   33 1   
    33   30   38 1   
    34   31   32 2   
    35   31   41 1   
    36   33   34 1   
    37   33   39 1   
    38   33   40 1   
    39   34   35 1   
    40   34   36 1   
    41   41   42 1   
    42   41   45 1   
    43   42   43 1   
    44   42   46 1   
    45   42   47 1   
    46   43   44 2   
    47   43   48 1   
    48   48   49 1   
    49   48   56 1   
    50   49   50 1   
    51   49   52 1   
    52   49   57 1   
    53   50   51 2   
    54   50   62 1   
    55   52   53 1   
    56   52   58 1   
    57   52   59 1   
    58   53   54 1   
    59   53   55 2   
    60   54   60 1   
    61   54   61 1   
    62   62   63 1   
    63   62   66 1   
    64   63   64 1   
    65   63   67 1   
    66   63   68 1   
    67   64   65 2   
    68   64   69 1   
    69   69   70 1   
    70   69   76 1   
    71   70   71 1   
    72   70   73 1   
    73   70   77 1   
    74   71   72 2   
    75   71   83 1   
    76   73   74 1   
    77   73   75 1   
    78   73   78 1   
    79   74   80 1   
    80   74   81 1   
    81   74   82 1   
    82   75   79 1   
    83   83   84 1   
    84   83   91 1   
    85   84   85 1   
    86   84   87 1   
    87   84   92 1   
    88   85   86 2   
    89   85  102 1   
    90   87   88 1   
    91   87   89 1   
    92   87   93 1   
    93   88   90 1   
    94   88   94 1   
    95   88   95 1   
    96   89   96 1   
    97   89   97 1   
    98   89   98 1   
    99   90   99 1   
   100   90  100 1   
   101   90  101 1   
   102  102  103 1   
   103  102  110 1   
   104  103  104 1   
   105  103  106 1   
   106  103  111 1   
   107  104  105 2   
   108  104  114 1   
   109  106  107 1   
   110  106  112 1   
   111  106  113 1   
   112  107  108 1   
   113  107  109 1   
   114  114  115 1   
   115  114  125 1   
   116  115  116 1   
   117  115  118 1   
   118  115  126 1   
   119  116  117 2   
   120  116  134 1   
   121  118  119 1   
   122  118  127 1   
   123  118  128 1   
   124  119  120 ar  
   125  119  121 ar  
   126  120  122 ar  
   127  120  129 1   
   128  121  123 ar  
   129  121  130 1   
   130  122  124 ar  
   131  122  131 1   
   132  123  124 ar  
   133  123  132 1   
   134  124  133 1   
   135  134  135 1   
   136  134  140 1   
   137  135  136 1   
   138  135  138 1   
   139  135  141 1   
   140  136  137 2   
   141  136  148 1   
   142  138  139 1   
   143  138  142 1   
   144  138  143 1   
   145  139  140 1   
   146  139  144 1   
   147  139  145 1   
   148  140  146 1   
   149  140  147 1   
   150  148  149 1   
   151  148  157 1   
   152  149  150 1   
   153  149  152 1   
   154  149  158 1   
   155  150  151 2   
   156  150  163 1   
   157  152  153 1   
   158  152  159 1   
   159  152  160 1   
   160  153  154 1   
   161  153  161 1   
   162  153  162 1   
   163  154  155 1   
   164  154  156 1   
   165  163  164 1   
   166  163  168 1   
   167  164  165 1   
   168  164  166 1   
   169  164  167 1   
   170  170  171 1   
   171  170  172 1   
   172  173  174 1   
   173  173  175 1   
@<TRIPOS>SUBSTRUCTURE
     1 MOL         1 TEMP              0 ****  ****    0 ROOT
