@<TRIPOS>MOLECULE
MOL
  189   185     1     0     0
SMALL
resp


@<TRIPOS>ATOM
      1 C1         -0.2680   -3.9440    5.8480 c3        1 MOL     -0.446533
      2 C2          0.3050   -3.3820    4.5610 c         1 MOL      0.735583
      3 O1          0.5000   -2.1420    4.4020 o         1 MOL     -0.611852
      4 H1         -1.2200   -3.4580    6.0640 hc        1 MOL      0.117405
      5 H2         -0.4250   -5.0170    5.7400 hc        1 MOL      0.117405
      6 H3          0.4270   -3.7580    6.6680 hc        1 MOL      0.117405
      7 N1          0.6590   -4.2910    3.6360 n         1 MOL     -0.589431
      8 C3          1.4710   -4.0080    2.4110 c3        1 MOL      0.159445
      9 C4          1.1970   -5.0290    1.3070 c         1 MOL      0.491364
     10 O2          1.2070   -6.2730    1.4500 o         1 MOL     -0.603571
     11 C5          2.9520   -4.0650    2.8020 c3        1 MOL     -0.250511
     12 C6          3.8100   -3.5270    1.6360 c         1 MOL      0.699741
     13 O3          5.0180   -3.7660    1.5810 o         1 MOL     -0.683683
     14 O4          3.3290   -2.7560    0.7710 o         1 MOL     -0.683683
     15 H4          0.4810   -5.2630    3.8560 hn        1 MOL      0.308299
     16 H5          1.2900   -2.9950    2.0530 h1        1 MOL      0.049637
     17 H6          3.2120   -5.1110    2.9780 hc        1 MOL      0.060835
     18 H7          3.1580   -3.4550    3.6770 hc        1 MOL      0.060835
     19 N2          0.9180   -4.5900    0.1020 n         1 MOL     -0.060362
     20 C7          0.6900   -5.3660   -1.0600 c3        1 MOL     -0.147263
     21 C8          1.9120   -5.3630   -1.9920 c         1 MOL      0.568520
     22 O5          2.1250   -6.2510   -2.8450 o         1 MOL     -0.582095
     23 C9         -0.5830   -4.7650   -1.7780 c3        1 MOL      0.312230
     24 C10        -1.8190   -4.9820   -0.8740 c3        1 MOL      0.027895
     25 C11        -0.7660   -5.6830   -3.0450 c3        1 MOL     -0.317897
     26 C12        -2.8700   -4.0770   -1.4180 c3        1 MOL     -0.149757
     27 H8          0.9870   -3.5880   -0.0190 hn        1 MOL     -0.025959
     28 H9          0.4190   -6.3900   -0.8000 h1        1 MOL      0.084564
     29 H10        -0.4620   -3.7600   -2.1700 hc        1 MOL      0.035123
     30 H11        -1.5590   -4.7540    0.1640 hc        1 MOL     -0.015903
     31 H12        -2.1020   -6.0420   -0.8280 hc        1 MOL     -0.015903
     32 H13        -0.6640   -6.7540   -2.8110 hc        1 MOL      0.056592
     33 H14        -1.7500   -5.5270   -3.4810 hc        1 MOL      0.056592
     34 H15        -0.0460   -5.3800   -3.7980 hc        1 MOL      0.056592
     35 H16        -3.3490   -4.5890   -2.2530 hc        1 MOL      0.030924
     36 H17        -3.5850   -3.8950   -0.6230 hc        1 MOL      0.030924
     37 H18        -2.4700   -3.1420   -1.8080 hc        1 MOL      0.030924
     38 N3          2.7800   -4.3190   -1.9110 n         1 MOL     -0.528725
     39 C13         3.6830   -3.9750   -3.0810 c3        1 MOL      0.048249
     40 C14         5.1010   -3.4870   -2.6490 c         1 MOL      0.362761
     41 O6          5.8930   -3.2240   -3.5740 o         1 MOL     -0.555599
     42 C15         2.9250   -2.8530   -3.9000 c3        1 MOL     -0.146116
     43 C16         2.6350   -1.5330   -3.0470 c         1 MOL      0.679221
     44 O7          3.1850   -1.3180   -1.9070 o         1 MOL     -0.682170
     45 O8          1.7290   -0.7850   -3.4630 o         1 MOL     -0.682170
     46 H19         2.5670   -3.6360   -1.2090 hn        1 MOL      0.370031
     47 H20         3.7910   -4.8600   -3.7130 h1        1 MOL      0.108305
     48 H21         1.9730   -3.2390   -4.2670 hc        1 MOL      0.046521
     49 H22         3.4670   -2.6430   -4.8200 hc        1 MOL      0.046521
     50 N4          5.4380   -3.3570   -1.3930 n         1 MOL     -0.121020
     51 C17         6.7740   -3.0670   -1.0420 c3        1 MOL     -0.143899
     52 C18         7.2760   -1.6460   -1.3940 c         1 MOL      0.411145
     53 O9          8.4300   -1.2610   -1.4210 o         1 MOL     -0.630204
     54 H23         4.7260   -3.3680   -0.6780 hn        1 MOL      0.140502
     55 H24         7.4760   -3.8330   -1.3920 h1        1 MOL      0.095036
     56 H25         6.7440   -3.2080    0.0390 h1        1 MOL      0.095036
     57 N5          6.4170   -0.6840   -1.6000 n         1 MOL     -0.004816
     58 C19         6.8340    0.6780   -2.0310 c3        1 MOL     -0.073841
     59 C20         7.2620    1.6590   -0.9540 c         1 MOL      0.426543
     60 O10         7.6090    2.7560   -1.3280 o         1 MOL     -0.542288
     61 C21         5.6570    1.3990   -2.8060 c3        1 MOL     -0.228840
     62 C22         4.3880    1.6820   -2.1220 c         1 MOL      0.904704
     63 O11         4.2900    1.2690   -0.8980 o         1 MOL     -0.724811
     64 O12         3.4430    2.3070   -2.6440 o         1 MOL     -0.724811
     65 H26         5.4590   -0.9950   -1.5880 hn        1 MOL      0.105734
     66 H27         7.6540    0.5590   -2.7410 h1        1 MOL      0.126836
     67 H28         5.3840    0.6860   -3.5920 hc        1 MOL      0.043803
     68 H29         6.0030    2.3060   -3.2910 hc        1 MOL      0.043803
     69 N6          7.0510    1.3790    0.3230 n         1 MOL     -0.095712
     70 C23         7.2350    2.3380    1.3720 c3        1 MOL     -0.359047
     71 C24         6.1540    3.4370    1.5770 c         1 MOL      0.659864
     72 O13         6.4450    4.5160    2.1180 o         1 MOL     -0.622170
     73 H30         6.6340    0.4780    0.4970 hn        1 MOL      0.136454
     74 H31         8.2090    2.7400    1.0790 h1        1 MOL      0.119499
     75 H32         7.2880    1.7570    2.2920 h1        1 MOL      0.119499
     76 N7          4.9380    3.1950    1.1210 n         1 MOL     -0.362171
     77 C25         3.7630    4.0910    1.3140 c3        1 MOL     -0.075957
     78 C26         2.4350    3.3860    1.5280 c         1 MOL      0.546904
     79 O14         2.2590    2.2390    1.1720 o         1 MOL     -0.658710
     80 C27         3.5730    5.0240    0.0750 c3        1 MOL      0.070749
     81 C28         4.7780    5.9230   -0.3250 c3        1 MOL     -0.424846
     82 C29         4.4880    7.1180   -1.2480 c         1 MOL      0.759527
     83 N8          5.4630    7.9500   -1.5320 n         1 MOL     -0.836492
     84 O15         3.3680    7.5150   -1.5570 o         1 MOL     -0.577137
     85 H33         4.9070    2.4890    0.3910 hn        1 MOL      0.233613
     86 H34         3.9440    4.6900    2.2150 h1        1 MOL      0.060165
     87 H35         2.6830    5.6350    0.2360 hc        1 MOL      0.037792
     88 H36         3.2720    4.4820   -0.8120 hc        1 MOL      0.037792
     89 H37         5.5710    5.3660   -0.8390 hc        1 MOL      0.130686
     90 H38         5.2190    6.4060    0.5420 hc        1 MOL      0.130686
     91 H39         6.3510    7.6720   -1.1300 hn        1 MOL      0.356187
     92 H40         5.3390    8.8500   -1.9750 hn        1 MOL      0.356187
     93 N9          1.4640    4.0170    2.1680 n         1 MOL     -0.264916
     94 C30         0.1350    3.3650    2.4600 c3        1 MOL      0.046205
     95 C31        -0.8960    3.8100    1.4290 c         1 MOL      0.424760
     96 O16        -1.0990    4.9650    1.1920 o         1 MOL     -0.565677
     97 C32        -0.3500    3.6710    3.8790 c3        1 MOL      0.216355
     98 C33        -1.6710    2.9310    4.2110 c3        1 MOL     -0.382976
     99 C34         0.6580    3.0770    4.9340 c3        1 MOL     -0.382976
    100 H41         1.5740    4.9400    2.5740 hn        1 MOL      0.222468
    101 H42         0.1550    2.2780    2.4870 h1        1 MOL      0.081103
    102 H43        -0.4320    4.7350    4.0620 hc        1 MOL     -0.030640
    103 H44        -2.5450    3.2660    3.6600 hc        1 MOL      0.092624
    104 H45        -1.4710    1.8800    3.9650 hc        1 MOL      0.092624
    105 H46        -1.7150    2.9350    5.3000 hc        1 MOL      0.092624
    106 H47         0.4050    3.1310    5.9910 hc        1 MOL      0.092624
    107 H48         0.6780    2.0310    4.6520 hc        1 MOL      0.092624
    108 H49         1.6250    3.5200    4.7160 hc        1 MOL      0.092624
    109 N10        -1.4600    2.7970    0.7360 n         1 MOL     -0.155487
    110 C35        -2.5930    2.9450   -0.2430 c3        1 MOL      0.303721
    111 C36        -3.9550    2.6790    0.4420 c         1 MOL      0.018501
    112 O17        -4.0270    2.2330    1.5880 o         1 MOL     -0.227399
    113 C37        -2.2960    1.9810   -1.4660 c3        1 MOL     -0.654236
    114 C38        -3.4070    1.7900   -2.4110 c         1 MOL      0.994309
    115 N11        -3.5920    2.7390   -3.2870 n         1 MOL     -0.844422
    116 O18        -3.9460    0.7170   -2.4650 o         1 MOL     -0.632341
    117 H50        -1.2120    1.8580    0.9930 hn        1 MOL      0.094842
    118 H51        -2.5530    3.9750   -0.6010 h1        1 MOL      0.025207
    119 H52        -2.1380    0.9930   -1.0350 hc        1 MOL      0.191500
    120 H53        -1.3940    2.2780   -1.9940 hc        1 MOL      0.191500
    121 H54        -3.2120    3.6530   -3.0980 hn        1 MOL      0.356325
    122 H55        -4.2200    2.6880   -4.0680 hn        1 MOL      0.356325
    123 N12        -5.0850    3.0160   -0.1470 n         1 MOL     -0.040817
    124 C39        -6.4500    2.8400    0.3630 c3        1 MOL     -0.036430
    125 C40        -6.8360    1.3630    0.5810 c         1 MOL      0.337417
    126 O19        -7.5300    0.9370    1.5000 o         1 MOL     -0.563793
    127 C41        -7.4420    3.5320   -0.5990 c3        1 MOL     -0.077166
    128 C42        -7.2850    3.2480   -2.0490 ca        1 MOL      0.126965
    129 C43        -6.6240    4.1090   -2.9470 ca        1 MOL     -0.280577
    130 C44        -7.7350    1.9980   -2.5030 ca        1 MOL     -0.280577
    131 C45        -6.3930    3.7790   -4.3030 ca        1 MOL     -0.176001
    132 C46        -7.4590    1.6910   -3.8520 ca        1 MOL     -0.176001
    133 C47        -6.8700    2.5850   -4.7930 ca        1 MOL      0.299418
    134 O20        -6.7510    2.2240   -6.0960 oh        1 MOL     -0.547942
    135 H56        -5.0480    3.4940   -1.0340 hn        1 MOL      0.056088
    136 H57        -6.4430    3.2100    1.3880 h1        1 MOL      0.072887
    137 H58        -7.4900    4.6100   -0.4420 hc        1 MOL      0.049816
    138 H59        -8.4600    3.2910   -0.3050 hc        1 MOL      0.049816
    139 H60        -6.2290    5.0600   -2.6120 ha        1 MOL      0.163932
    140 H61        -8.4560    1.3440   -2.0290 ha        1 MOL      0.163932
    141 H62        -5.9200    4.4790   -4.9670 ha        1 MOL      0.120682
    142 H63        -7.6990    0.7010   -4.2140 ha        1 MOL      0.120682
    143 H64        -7.2340    1.4090   -6.2720 ho        1 MOL      0.419570
    144 N13        -6.3020    0.4750   -0.2190 n         1 MOL      0.177420
    145 C48        -6.4480   -1.0240    0.0200 c3        1 MOL     -0.388098
    146 C49        -5.7520   -1.5590    1.3010 c         1 MOL      0.646954
    147 O21        -6.1930   -2.5580    1.7650 o         1 MOL     -0.499710
    148 C50        -6.0340   -1.8350   -1.2400 c3        1 MOL      0.052652
    149 C51        -6.6690   -3.1990   -1.3630 c3        1 MOL     -0.293606
    150 C52        -8.2120   -3.2600   -1.3140 c         1 MOL      0.749673
    151 O22        -8.6940   -3.9760   -0.4190 o         1 MOL     -0.750084
    152 O23        -8.9300   -2.8030   -2.2290 o         1 MOL     -0.750084
    153 H65        -5.6680    0.7240   -0.9700 hn        1 MOL      0.122710
    154 H66        -7.5130   -1.1210    0.2300 h1        1 MOL      0.176118
    155 H67        -4.9480   -1.9310   -1.2890 hc        1 MOL      0.024083
    156 H68        -6.3060   -1.2980   -2.1490 hc        1 MOL      0.024083
    157 H69        -6.3110   -3.7440   -0.4930 hc        1 MOL      0.056930
    158 H70        -6.3930   -3.7480   -2.2630 hc        1 MOL      0.056930
    159 N14        -4.6600   -0.9280    1.6730 n         1 MOL     -0.418970
    160 C53        -3.7870   -1.3110    2.7750 c3        1 MOL     -0.009361
    161 C54        -4.3150   -0.5360    4.0530 c         1 MOL      0.424661
    162 O24        -4.2220   -1.1150    5.1310 o         1 MOL     -0.559144
    163 C55        -2.3920   -0.8650    2.3340 c3        1 MOL      0.023086
    164 C56        -1.7420   -1.6620    1.0910 c3        1 MOL      0.073926
    165 C57        -0.3820   -1.1060    0.6390 c         1 MOL      0.577256
    166 O25         0.3340   -1.7460   -0.1560 o         1 MOL     -0.643226
    167 O26         0.0740   -0.0660    1.1610 o         1 MOL     -0.643226
    168 H71        -4.3850   -0.1330    1.1280 hn        1 MOL      0.195896
    169 H72        -3.8090   -2.3790    2.9670 h1        1 MOL      0.074228
    170 H73        -1.7120   -0.9810    3.1770 hc        1 MOL      0.022643
    171 H74        -2.4280    0.1980    2.0900 hc        1 MOL      0.022643
    172 H75        -2.4440   -1.5700    0.2560 hc        1 MOL     -0.012620
    173 H76        -1.5710   -2.6900    1.4010 hc        1 MOL     -0.012620
    174 N15        -4.7660    0.6980    3.9090 n         1 MOL     -0.061762
    175 C58        -5.2680    1.5630    4.9820 c3        1 MOL     -0.199054
    176 H77        -5.9290    2.3190    4.5580 h1        1 MOL      0.076177
    177 H78        -5.8210    0.9620    5.7040 h1        1 MOL      0.076177
    178 H79        -4.4300    2.0500    5.4780 h1        1 MOL      0.076177
    179 H80        -4.6640    1.1450    3.0120 hn        1 MOL      0.067117
    180 Ca1         2.6080   -0.2020    0.3650 Ca        1 MOL      1.751291
    181 O27         2.5540   -0.6740    3.0180 oh        1 MOL     -0.841070
    182 H81         3.1670   -0.8520    3.7310 ho        1 MOL      0.407168
    183 H82         1.7840   -1.2060    3.2210 ho        1 MOL      0.407168
    184 O28         5.3350   -0.9610    1.5400 oh        1 MOL     -0.841070
    185 H83         5.7620   -0.7990    2.3810 ho        1 MOL      0.407168
    186 H84         5.3390   -1.9110    1.4490 ho        1 MOL      0.407168
    187 O29         1.2040    1.1680   -1.5540 oh        1 MOL     -0.841070
    188 H85         1.1350    0.5140   -2.2510 ho        1 MOL      0.407168
    189 H86         1.9320    1.7300   -1.8220 ho        1 MOL      0.407168
@<TRIPOS>BOND
     1    1    2 1   
     2    1    4 1   
     3    1    5 1   
     4    1    6 1   
     5    2    3 2   
     6    2    7 1   
     7    7    8 1   
     8    7   15 1   
     9    8    9 1   
    10    8   11 1   
    11    8   16 1   
    12    9   10 2   
    13    9   19 1   
    14   11   12 1   
    15   11   17 1   
    16   11   18 1   
    17   12   13 1   
    18   12   14 1   
    19   19   20 1   
    20   19   27 1   
    21   20   21 1   
    22   20   23 1   
    23   20   28 1   
    24   21   22 2   
    25   21   38 1   
    26   23   24 1   
    27   23   25 1   
    28   23   29 1   
    29   24   26 1   
    30   24   30 1   
    31   24   31 1   
    32   25   32 1   
    33   25   33 1   
    34   25   34 1   
    35   26   35 1   
    36   26   36 1   
    37   26   37 1   
    38   38   39 1   
    39   38   46 1   
    40   39   40 1   
    41   39   42 1   
    42   39   47 1   
    43   40   41 2   
    44   40   50 1   
    45   42   43 1   
    46   42   48 1   
    47   42   49 1   
    48   43   44 1   
    49   43   45 1   
    50   50   51 1   
    51   50   54 1   
    52   51   52 1   
    53   51   55 1   
    54   51   56 1   
    55   52   53 2   
    56   52   57 1   
    57   57   58 1   
    58   57   65 1   
    59   58   59 1   
    60   58   61 1   
    61   58   66 1   
    62   59   60 2   
    63   59   69 1   
    64   61   62 1   
    65   61   67 1   
    66   61   68 1   
    67   62   63 1   
    68   62   64 1   
    69   69   70 1   
    70   69   73 1   
    71   70   71 1   
    72   70   74 1   
    73   70   75 1   
    74   71   72 2   
    75   71   76 1   
    76   76   77 1   
    77   76   85 1   
    78   77   78 1   
    79   77   80 1   
    80   77   86 1   
    81   78   79 2   
    82   78   93 1   
    83   80   81 1   
    84   80   87 1   
    85   80   88 1   
    86   81   82 1   
    87   81   89 1   
    88   81   90 1   
    89   82   83 1   
    90   82   84 2   
    91   83   91 1   
    92   83   92 1   
    93   93   94 1   
    94   93  100 1   
    95   94   95 1   
    96   94   97 1   
    97   94  101 1   
    98   95   96 2   
    99   95  109 1   
   100   97   98 1   
   101   97   99 1   
   102   97  102 1   
   103   98  103 1   
   104   98  104 1   
   105   98  105 1   
   106   99  106 1   
   107   99  107 1   
   108   99  108 1   
   109  109  110 1   
   110  109  117 1   
   111  110  111 1   
   112  110  113 1   
   113  110  118 1   
   114  111  112 2   
   115  111  123 1   
   116  113  114 1   
   117  113  119 1   
   118  113  120 1   
   119  114  115 1   
   120  114  116 2   
   121  115  121 1   
   122  115  122 1   
   123  123  124 1   
   124  123  135 1   
   125  124  125 1   
   126  124  127 1   
   127  124  136 1   
   128  125  126 2   
   129  125  144 1   
   130  127  128 1   
   131  127  137 1   
   132  127  138 1   
   133  128  129 ar  
   134  128  130 ar  
   135  129  131 ar  
   136  129  139 1   
   137  130  132 ar  
   138  130  140 1   
   139  131  133 ar  
   140  131  141 1   
   141  132  133 ar  
   142  132  142 1   
   143  133  134 1   
   144  134  143 1   
   145  144  145 1   
   146  144  153 1   
   147  145  146 1   
   148  145  148 1   
   149  145  154 1   
   150  146  147 2   
   151  146  159 1   
   152  148  149 1   
   153  148  155 1   
   154  148  156 1   
   155  149  150 1   
   156  149  157 1   
   157  149  158 1   
   158  150  151 1   
   159  150  152 1   
   160  159  160 1   
   161  159  168 1   
   162  160  161 1   
   163  160  163 1   
   164  160  169 1   
   165  161  162 2   
   166  161  174 1   
   167  163  164 1   
   168  163  170 1   
   169  163  171 1   
   170  164  165 1   
   171  164  172 1   
   172  164  173 1   
   173  165  166 1   
   174  165  167 1   
   175  174  175 1   
   176  174  179 1   
   177  175  176 1   
   178  175  177 1   
   179  175  178 1   
   180  181  182 1   
   181  181  183 1   
   182  184  185 1   
   183  184  186 1   
   184  187  188 1   
   185  187  189 1   
@<TRIPOS>SUBSTRUCTURE
     1 MOL         1 TEMP              0 ****  ****    0 ROOT
