@<TRIPOS>MOLECULE
MOL
  189   185     1     0     0
SMALL
resp


@<TRIPOS>ATOM
      1 C1          1.1790   -3.6890    6.0550 c3        1 MOL     -0.495906
      2 C2          1.5600   -3.2710    4.5820 c         1 MOL      0.719652
      3 O1          1.3320   -2.1070    4.2060 o         1 MOL     -0.603694
      4 H1          1.7780   -4.5490    6.3540 hc        1 MOL      0.127743
      5 H2          1.3760   -2.8580    6.7310 hc        1 MOL      0.127743
      6 H3          0.1220   -3.9500    6.0980 hc        1 MOL      0.127743
      7 N1          1.9730   -4.1560    3.7380 n         1 MOL     -0.513756
      8 C3          2.5110   -3.7540    2.4220 c3        1 MOL      0.081657
      9 C4          2.4080   -4.8870    1.3990 c         1 MOL      0.625551
     10 O2          2.6580   -6.0410    1.7210 o         1 MOL     -0.591926
     11 C5          3.9770   -3.4280    2.6390 c3        1 MOL     -0.337588
     12 C6          4.6540   -2.7140    1.4370 c         1 MOL      0.841516
     13 O3          3.9130   -2.2810    0.5230 o         1 MOL     -0.732410
     14 O4          5.9110   -2.5220    1.3510 o         1 MOL     -0.732410
     15 H4          2.0390   -5.1430    3.9200 hn        1 MOL      0.293857
     16 H5          2.0100   -2.8630    2.0340 h1        1 MOL      0.081010
     17 H6          4.5260   -4.3500    2.8270 hc        1 MOL      0.066222
     18 H7          3.9920   -2.7480    3.4980 hc        1 MOL      0.066222
     19 N2          1.9610   -4.5840    0.1610 n         1 MOL     -0.361120
     20 C7          1.7820   -5.5180   -1.0090 c3        1 MOL     -0.034311
     21 C8          2.7060   -5.0620   -2.1690 c         1 MOL      0.533003
     22 O5          3.1180   -5.8970   -3.0130 o         1 MOL     -0.599891
     23 C9          0.3300   -5.6780   -1.5050 c3        1 MOL      0.302478
     24 C10        -0.7000   -5.7860   -0.3830 c3        1 MOL      0.017342
     25 C11         0.1520   -6.8510   -2.4940 c3        1 MOL     -0.174878
     26 C12        -2.1400   -5.5660   -0.8450 c3        1 MOL     -0.171034
     27 H8          1.9510   -3.5970   -0.0640 hn        1 MOL      0.141759
     28 H9          2.0540   -6.5120   -0.6580 h1        1 MOL      0.052114
     29 H10         0.1600   -4.7450   -2.0350 hc        1 MOL     -0.030436
     30 H11        -0.5270   -4.9970    0.3520 hc        1 MOL     -0.035168
     31 H12        -0.5830   -6.7710    0.0620 hc        1 MOL     -0.035168
     32 H13         0.9650   -7.0000   -3.1920 hc        1 MOL      0.025043
     33 H14         0.0450   -7.7860   -1.9290 hc        1 MOL      0.025043
     34 H15        -0.7590   -6.7160   -3.0710 hc        1 MOL      0.025043
     35 H16        -2.7750   -5.6420    0.0350 hc        1 MOL      0.041499
     36 H17        -2.2000   -4.5500   -1.2330 hc        1 MOL      0.041499
     37 H18        -2.4810   -6.3270   -1.5530 hc        1 MOL      0.041499
     38 N3          3.0900   -3.7790   -2.3230 n         1 MOL     -0.385050
     39 C13         3.7740   -3.2660   -3.5650 c3        1 MOL      0.056831
     40 C14         5.1610   -2.5490   -3.2690 c         1 MOL      0.384372
     41 O6          5.7080   -1.9940   -4.2290 o         1 MOL     -0.528848
     42 C15         2.8490   -2.3630   -4.3080 c3        1 MOL     -0.196214
     43 C16         2.3970   -1.1680   -3.4660 c         1 MOL      0.751786
     44 O7          2.9170   -1.0210   -2.3290 o         1 MOL     -0.696948
     45 O8          1.5020   -0.4210   -3.8890 o         1 MOL     -0.696948
     46 H19         2.7140   -3.0570   -1.7450 hn        1 MOL      0.304391
     47 H20         4.0270   -4.0510   -4.2880 h1        1 MOL      0.097387
     48 H21         2.0630   -3.0150   -4.6760 hc        1 MOL      0.050490
     49 H22         3.3120   -1.9780   -5.2140 hc        1 MOL      0.050490
     50 N4          5.6100   -2.5510   -2.0120 n         1 MOL     -0.270755
     51 C17         6.9350   -2.0150   -1.7790 c3        1 MOL     -0.194254
     52 C18         7.1700   -0.5550   -2.0120 c         1 MOL      0.530387
     53 O9          8.3600   -0.2530   -1.9730 o         1 MOL     -0.607103
     54 H23         5.0050   -2.7890   -1.2400 hn        1 MOL      0.202866
     55 H24         7.6610   -2.6240   -2.3130 h1        1 MOL      0.123204
     56 H25         7.1200   -2.1720   -0.7200 h1        1 MOL      0.123204
     57 N5          6.1740    0.3520   -2.2720 n         1 MOL     -0.221688
     58 C19         6.3110    1.7690   -2.7310 c3        1 MOL      0.052787
     59 C20         6.7360    2.7650   -1.6500 c         1 MOL      0.391585
     60 O10         7.2560    3.8160   -2.0060 o         1 MOL     -0.552025
     61 C21         5.0830    2.3290   -3.4250 c3        1 MOL     -0.284001
     62 C22         3.8180    2.3870   -2.4780 c         1 MOL      0.779370
     63 O11         3.8360    1.8590   -1.3730 o         1 MOL     -0.720136
     64 O12         2.7990    3.0030   -2.8670 o         1 MOL     -0.720136
     65 H26         5.2470   -0.0180   -2.3470 hn        1 MOL      0.198538
     66 H27         7.0990    1.9190   -3.4780 h1        1 MOL      0.063050
     67 H28         4.8660    1.7570   -4.3320 hc        1 MOL      0.082129
     68 H29         5.2000    3.3780   -3.6970 hc        1 MOL      0.082129
     69 N6          6.6090    2.3770   -0.3730 n         1 MOL     -0.065894
     70 C23         7.0810    3.1540    0.8020 c3        1 MOL     -0.174519
     71 C24         6.0040    3.9710    1.5010 c         1 MOL      0.571399
     72 O13         6.3160    4.8140    2.3690 o         1 MOL     -0.580123
     73 H30         6.2450    1.4340   -0.2900 hn        1 MOL      0.105849
     74 H31         7.8280    3.7970    0.3300 h1        1 MOL      0.076515
     75 H32         7.5800    2.5570    1.5640 h1        1 MOL      0.076515
     76 N7          4.7100    3.7450    1.1630 n         1 MOL     -0.307166
     77 C25         3.5550    4.2910    1.8770 c3        1 MOL     -0.039568
     78 C26         2.3020    3.2790    1.8860 c         1 MOL      0.659965
     79 O14         2.2360    2.4080    0.9940 o         1 MOL     -0.574947
     80 C27         3.2580    5.7320    1.3460 c3        1 MOL     -0.154660
     81 C28         2.9280    5.8540   -0.1170 c3        1 MOL     -0.097689
     82 C29         2.5110    7.3160   -0.4920 c         1 MOL      0.669383
     83 N8          2.3420    7.5200   -1.7790 n         1 MOL     -0.807589
     84 O15         2.4000    8.2420    0.2190 o         1 MOL     -0.584606
     85 H33         4.4730    3.1240    0.4100 hn        1 MOL      0.225625
     86 H34         3.7360    4.4340    2.9330 h1        1 MOL      0.027300
     87 H35         4.1580    6.2740    1.6160 hc        1 MOL      0.059738
     88 H36         2.4810    6.1910    1.9610 hc        1 MOL      0.059738
     89 H37         2.0340    5.2820   -0.3790 hc        1 MOL      0.080121
     90 H38         3.7130    5.5440   -0.8030 hc        1 MOL      0.080121
     91 H39         2.3920    6.8030   -2.4850 hn        1 MOL      0.352202
     92 H40         1.9510    8.4240   -1.9740 hn        1 MOL      0.352202
     93 N9          1.3840    3.4200    2.8410 n         1 MOL     -0.633490
     94 C30         0.2870    2.5210    3.0700 c3        1 MOL      0.037257
     95 C31        -0.9290    2.9300    2.1940 c         1 MOL      0.747750
     96 O16        -1.1610    4.0960    2.0100 o         1 MOL     -0.602762
     97 C32         0.0320    2.3740    4.5430 c3        1 MOL      0.185516
     98 C33        -0.5020    3.5880    5.3600 c3        1 MOL     -0.286941
     99 C34        -0.9760    1.2270    4.7710 c3        1 MOL     -0.286941
    100 H41         1.5740    4.0890    3.5660 hn        1 MOL      0.359046
    101 H42         0.6200    1.5800    2.6300 h1        1 MOL      0.157024
    102 H43         0.9790    2.0480    4.9690 hc        1 MOL     -0.007177
    103 H44         0.3040    4.3150    5.2950 hc        1 MOL      0.067049
    104 H45        -1.4000    3.9740    4.8820 hc        1 MOL      0.067049
    105 H46        -0.8320    3.4050    6.3740 hc        1 MOL      0.067049
    106 H47        -1.1220    1.0670    5.8450 hc        1 MOL      0.067049
    107 H48        -1.9510    1.5430    4.4050 hc        1 MOL      0.067049
    108 H49        -0.6540    0.3340    4.2370 hc        1 MOL      0.067049
    109 N10        -1.6960    1.9260    1.6530 n         1 MOL     -0.450764
    110 C35        -2.8330    2.1750    0.7320 c3        1 MOL      0.221484
    111 C36        -4.1960    1.6870    1.2710 c         1 MOL      0.272697
    112 O17        -4.1810    0.7060    2.0600 o         1 MOL     -0.417434
    113 C37        -2.3950    1.5850   -0.6030 c3        1 MOL     -0.132873
    114 C38        -3.5350    1.4940   -1.5290 c         1 MOL      0.630432
    115 N11        -3.9580    2.5830   -2.2080 n         1 MOL     -0.733782
    116 O18        -4.0460    0.3670   -1.7210 o         1 MOL     -0.527885
    117 H50        -1.3910    0.9810    1.8020 hn        1 MOL      0.016831
    118 H51        -2.9890    3.2520    0.5800 h1        1 MOL      0.005648
    119 H52        -2.0260    0.5600   -0.5020 hc        1 MOL      0.100304
    120 H53        -1.5880    2.1690   -1.0450 hc        1 MOL      0.100304
    121 H54        -3.6320    3.5180   -1.9960 hn        1 MOL      0.337277
    122 H55        -4.6530    2.4480   -2.9320 hn        1 MOL      0.337277
    123 N12        -5.3040    2.3520    0.8490 n         1 MOL     -0.179067
    124 C39        -6.6380    1.9530    1.2130 c3        1 MOL     -0.036815
    125 C40        -7.0470    0.4750    0.9230 c         1 MOL      0.554459
    126 O19        -7.9630   -0.0160    1.6500 o         1 MOL     -0.622421
    127 C41        -7.6750    2.9460    0.6040 c3        1 MOL     -0.116805
    128 C42        -7.7350    2.9890   -0.9520 ca        1 MOL     -0.034183
    129 C43        -8.4960    2.0240   -1.5990 ca        1 MOL     -0.073196
    130 C44        -7.2360    4.0960   -1.6460 ca        1 MOL     -0.073196
    131 C45        -8.5320    1.9890   -3.0080 ca        1 MOL     -0.384422
    132 C46        -7.5610    4.2290   -2.9880 ca        1 MOL     -0.384422
    133 C47        -8.1230    3.1250   -3.7210 ca        1 MOL      0.531912
    134 O20        -8.2550    3.3300   -5.0240 oh        1 MOL     -0.602608
    135 H56        -5.1940    3.1980    0.3200 hn        1 MOL      0.169381
    136 H57        -6.7440    2.0530    2.2890 h1        1 MOL      0.072208
    137 H58        -7.6050    3.9410    1.0250 hc        1 MOL      0.059433
    138 H59        -8.6660    2.6900    1.0040 hc        1 MOL      0.059433
    139 H60        -8.9790    1.2660   -0.9990 ha        1 MOL      0.104210
    140 H61        -6.8900    4.9660   -1.0950 ha        1 MOL      0.104210
    141 H62        -8.9460    1.1390   -3.5320 ha        1 MOL      0.163356
    142 H63        -7.2260    5.0760   -3.5510 ha        1 MOL      0.163356
    143 H64        -8.5120    2.5230   -5.4920 ho        1 MOL      0.447684
    144 N13        -6.3420   -0.2570    0.0670 n         1 MOL     -0.098979
    145 C48        -6.5060   -1.7110   -0.1330 c3        1 MOL     -0.098375
    146 C49        -5.4390   -2.5220    0.6130 c         1 MOL      0.343698
    147 O21        -5.5570   -3.7230    0.6370 o         1 MOL     -0.517446
    148 C50        -6.4200   -2.0460   -1.6310 c3        1 MOL     -0.076134
    149 C51        -7.1780   -1.1030   -2.5660 c3        1 MOL     -0.355485
    150 C52        -7.4900   -1.6320   -4.0070 c         1 MOL      0.796508
    151 O22        -8.5640   -2.2230   -4.0920 o         1 MOL     -0.764765
    152 O23        -6.8150   -1.3360   -4.9980 o         1 MOL     -0.764765
    153 H65        -5.7340    0.3130   -0.4860 hn        1 MOL      0.130207
    154 H66        -7.4860   -2.0060    0.2470 h1        1 MOL      0.123360
    155 H67        -6.8720   -3.0220   -1.7950 hc        1 MOL      0.079705
    156 H68        -5.3820   -2.1890   -1.9220 hc        1 MOL      0.079705
    157 H69        -6.6930   -0.1290   -2.6550 hc        1 MOL      0.099152
    158 H70        -8.1530   -0.9580   -2.1110 hc        1 MOL      0.099152
    159 N14        -4.4100   -1.9060    1.1980 n         1 MOL     -0.112608
    160 C53        -3.5870   -2.5770    2.2180 c3        1 MOL     -0.175543
    161 C54        -4.1060   -2.3170    3.5960 c         1 MOL      0.414166
    162 O24        -3.6760   -2.9830    4.5640 o         1 MOL     -0.557618
    163 C55        -2.1780   -1.9740    2.1330 c3        1 MOL     -0.054040
    164 C56        -1.4790   -2.1910    0.8430 c3        1 MOL      0.000325
    165 C57        -0.0690   -1.5480    0.6940 c         1 MOL      0.602571
    166 O25         0.7140   -1.9000   -0.1920 o         1 MOL     -0.714619
    167 O26         0.2810   -0.5370    1.3650 o         1 MOL     -0.714619
    168 H71        -4.4630   -0.8960    1.2460 hn        1 MOL      0.058100
    169 H72        -3.4720   -3.6570    2.1360 h1        1 MOL      0.148147
    170 H73        -1.5500   -2.4500    2.8830 hc        1 MOL      0.093837
    171 H74        -2.2480   -0.9030    2.3060 hc        1 MOL      0.093837
    172 H75        -2.0620   -1.8460   -0.0140 hc        1 MOL      0.060848
    173 H76        -1.4660   -3.2620    0.6770 hc        1 MOL      0.060848
    174 N15        -5.1790   -1.5560    3.7760 n         1 MOL     -0.082873
    175 C58        -5.7610   -1.2980    5.0380 c3        1 MOL     -0.081728
    176 H77        -6.0940   -0.2610    5.0790 h1        1 MOL      0.043048
    177 H78        -6.6140   -1.9600    5.1870 h1        1 MOL      0.043048
    178 H79        -5.0230   -1.4730    5.8220 h1        1 MOL      0.043048
    179 H80        -5.4260   -0.9570    2.9960 hn        1 MOL      0.159427
    180 Ca1         2.6250   -0.0180    0.0840 Ca        1 MOL      1.742013
    181 O27         2.7420   -0.1980    2.7620 oh        1 MOL     -0.879016
    182 H81         2.0810   -0.8530    2.9670 ho        1 MOL      0.420325
    183 H82         3.4930   -0.4250    3.3120 ho        1 MOL      0.420325
    184 O28         5.3400    0.2620    1.2870 oh        1 MOL     -0.879016
    185 H83         5.8510    0.6740    1.9840 ho        1 MOL      0.420325
    186 H84         5.7200   -0.6060    1.1880 ho        1 MOL      0.420325
    187 O29         0.9710    1.3750   -1.8360 oh        1 MOL     -0.879016
    188 H85         1.7720    1.8410   -2.0570 ho        1 MOL      0.420325
    189 H86         0.7770    0.8450   -2.5980 ho        1 MOL      0.420325
@<TRIPOS>BOND
     1    1    2 1   
     2    1    4 1   
     3    1    5 1   
     4    1    6 1   
     5    2    3 2   
     6    2    7 1   
     7    7    8 1   
     8    7   15 1   
     9    8    9 1   
    10    8   11 1   
    11    8   16 1   
    12    9   10 2   
    13    9   19 1   
    14   11   12 1   
    15   11   17 1   
    16   11   18 1   
    17   12   13 1   
    18   12   14 1   
    19   19   20 1   
    20   19   27 1   
    21   20   21 1   
    22   20   23 1   
    23   20   28 1   
    24   21   22 2   
    25   21   38 1   
    26   23   24 1   
    27   23   25 1   
    28   23   29 1   
    29   24   26 1   
    30   24   30 1   
    31   24   31 1   
    32   25   32 1   
    33   25   33 1   
    34   25   34 1   
    35   26   35 1   
    36   26   36 1   
    37   26   37 1   
    38   38   39 1   
    39   38   46 1   
    40   39   40 1   
    41   39   42 1   
    42   39   47 1   
    43   40   41 2   
    44   40   50 1   
    45   42   43 1   
    46   42   48 1   
    47   42   49 1   
    48   43   44 1   
    49   43   45 1   
    50   50   51 1   
    51   50   54 1   
    52   51   52 1   
    53   51   55 1   
    54   51   56 1   
    55   52   53 2   
    56   52   57 1   
    57   57   58 1   
    58   57   65 1   
    59   58   59 1   
    60   58   61 1   
    61   58   66 1   
    62   59   60 2   
    63   59   69 1   
    64   61   62 1   
    65   61   67 1   
    66   61   68 1   
    67   62   63 1   
    68   62   64 1   
    69   69   70 1   
    70   69   73 1   
    71   70   71 1   
    72   70   74 1   
    73   70   75 1   
    74   71   72 2   
    75   71   76 1   
    76   76   77 1   
    77   76   85 1   
    78   77   78 1   
    79   77   80 1   
    80   77   86 1   
    81   78   79 2   
    82   78   93 1   
    83   80   81 1   
    84   80   87 1   
    85   80   88 1   
    86   81   82 1   
    87   81   89 1   
    88   81   90 1   
    89   82   83 1   
    90   82   84 2   
    91   83   91 1   
    92   83   92 1   
    93   93   94 1   
    94   93  100 1   
    95   94   95 1   
    96   94   97 1   
    97   94  101 1   
    98   95   96 2   
    99   95  109 1   
   100   97   98 1   
   101   97   99 1   
   102   97  102 1   
   103   98  103 1   
   104   98  104 1   
   105   98  105 1   
   106   99  106 1   
   107   99  107 1   
   108   99  108 1   
   109  109  110 1   
   110  109  117 1   
   111  110  111 1   
   112  110  113 1   
   113  110  118 1   
   114  111  112 2   
   115  111  123 1   
   116  113  114 1   
   117  113  119 1   
   118  113  120 1   
   119  114  115 1   
   120  114  116 2   
   121  115  121 1   
   122  115  122 1   
   123  123  124 1   
   124  123  135 1   
   125  124  125 1   
   126  124  127 1   
   127  124  136 1   
   128  125  126 2   
   129  125  144 1   
   130  127  128 1   
   131  127  137 1   
   132  127  138 1   
   133  128  129 ar  
   134  128  130 ar  
   135  129  131 ar  
   136  129  139 1   
   137  130  132 ar  
   138  130  140 1   
   139  131  133 ar  
   140  131  141 1   
   141  132  133 ar  
   142  132  142 1   
   143  133  134 1   
   144  134  143 1   
   145  144  145 1   
   146  144  153 1   
   147  145  146 1   
   148  145  148 1   
   149  145  154 1   
   150  146  147 2   
   151  146  159 1   
   152  148  149 1   
   153  148  155 1   
   154  148  156 1   
   155  149  150 1   
   156  149  157 1   
   157  149  158 1   
   158  150  151 1   
   159  150  152 1   
   160  159  160 1   
   161  159  168 1   
   162  160  161 1   
   163  160  163 1   
   164  160  169 1   
   165  161  162 2   
   166  161  174 1   
   167  163  164 1   
   168  163  170 1   
   169  163  171 1   
   170  164  165 1   
   171  164  172 1   
   172  164  173 1   
   173  165  166 1   
   174  165  167 1   
   175  174  175 1   
   176  174  179 1   
   177  175  176 1   
   178  175  177 1   
   179  175  178 1   
   180  181  182 1   
   181  181  183 1   
   182  184  185 1   
   183  184  186 1   
   184  187  188 1   
   185  187  189 1   
@<TRIPOS>SUBSTRUCTURE
     1 MOL         1 TEMP              0 ****  ****    0 ROOT
