@<TRIPOS>MOLECULE
MOL
  189   185     1     0     0
SMALL
resp


@<TRIPOS>ATOM
      1 C1          0.1060    4.4290   -4.5910 c3        1 MOL     -0.518579
      2 C2          0.4390    3.6760   -3.2910 c         1 MOL      0.788640
      3 O1         -0.2590    3.6960   -2.3440 o         1 MOL     -0.546451
      4 H1         -0.9740    4.4370   -4.7400 hc        1 MOL      0.128237
      5 H2          0.4700    5.4550   -4.5210 hc        1 MOL      0.128237
      6 H3          0.5840    3.9300   -5.4340 hc        1 MOL      0.128237
      7 N1          1.6160    3.0430   -3.3030 n         1 MOL     -0.639185
      8 C3          2.1240    2.4230   -2.0580 c3        1 MOL      0.067546
      9 C4          2.6210    3.5310   -1.1380 c         1 MOL      0.509117
     10 O2          3.4080    4.3490   -1.6230 o         1 MOL     -0.585293
     11 C5          3.2410    1.4310   -2.4160 c3        1 MOL     -0.291000
     12 C6          3.9630    0.7500   -1.2860 c         1 MOL      0.744009
     13 O3          3.4690    0.9140   -0.1250 o         1 MOL     -0.673473
     14 O4          4.8660   -0.0870   -1.5420 o         1 MOL     -0.673473
     15 H4          2.2470    3.2610   -4.0540 hn        1 MOL      0.343624
     16 H5          1.2700    2.0000   -1.5320 h1        1 MOL      0.038423
     17 H6          4.0520    1.8770   -3.0000 hc        1 MOL      0.090428
     18 H7          2.9950    0.5560   -3.0260 hc        1 MOL      0.090428
     19 N2          2.3550    3.5120    0.1770 n         1 MOL     -0.108525
     20 C7          2.6670    4.6100    1.1380 c3        1 MOL      0.141728
     21 C8          3.7000    4.1860    2.2130 c         1 MOL      0.376320
     22 O5          4.6150    4.8990    2.5930 o         1 MOL     -0.542036
     23 C9          1.3080    5.0000    1.7130 c3        1 MOL     -0.091894
     24 C10         0.1870    5.4300    0.6940 c3        1 MOL      0.139437
     25 C11         0.6210    6.6060   -0.2440 c3        1 MOL     -0.181180
     26 C12        -0.5750    7.1390   -0.9640 c3        1 MOL      0.179809
     27 N3         -0.2510    8.3600   -1.6570 n4        1 MOL     -0.325810
     28 H8          1.7290    2.7650    0.4340 hn        1 MOL      0.067934
     29 H9          3.1100    5.4630    0.6250 h1        1 MOL      0.009736
     30 H10         1.4460    5.8420    2.3960 hc        1 MOL      0.012613
     31 H11         0.9450    4.1750    2.3300 hc        1 MOL      0.012613
     32 H12        -0.7010    5.7530    1.2480 hc        1 MOL      0.005506
     33 H13        -0.0790    4.5130    0.1730 hc        1 MOL      0.005506
     34 H14         1.3550    6.2450   -0.9650 hc        1 MOL      0.048318
     35 H15         1.0300    7.3630    0.4260 hc        1 MOL      0.048318
     36 H16        -1.2500    7.3810   -0.1390 hx        1 MOL      0.038050
     37 H17        -1.0350    6.4460   -1.6740 hx        1 MOL      0.038050
     38 H18         0.2310    9.0100   -1.0540 hn        1 MOL      0.310352
     39 H19         0.3000    8.1600   -2.4830 hn        1 MOL      0.310352
     40 H20        -1.1140    8.7950   -1.9330 hn        1 MOL      0.310352
     41 N4          3.5880    2.9500    2.6990 n         1 MOL     -0.248061
     42 C13         4.4340    2.4260    3.7650 c3        1 MOL      0.082037
     43 C14         5.7580    1.7690    3.2210 c         1 MOL      0.385574
     44 O6          6.6490    1.4330    4.0370 o         1 MOL     -0.527053
     45 C15         3.6700    1.5840    4.7720 c3        1 MOL     -0.243836
     46 C16         2.9510    0.4120    4.1710 c         1 MOL      0.756811
     47 O7          2.9110    0.2640    2.9400 o         1 MOL     -0.714275
     48 O8          2.3480   -0.4710    4.8810 o         1 MOL     -0.714275
     49 H21         2.8300    2.3910    2.3310 hn        1 MOL      0.189014
     50 H22         4.8780    3.2500    4.3280 h1        1 MOL      0.083994
     51 H23         2.9950    2.2300    5.3340 hc        1 MOL      0.068232
     52 H24         4.3940    1.1900    5.4900 hc        1 MOL      0.068232
     53 N5          5.8900    1.6960    1.8850 n         1 MOL     -0.106481
     54 C17         7.0620    1.2310    1.0980 c3        1 MOL     -0.297184
     55 C18         7.3930   -0.2460    1.2580 c         1 MOL      0.642215
     56 O9          8.5860   -0.5160    1.1800 o         1 MOL     -0.594979
     57 H25         5.1260    2.0910    1.3530 hn        1 MOL      0.175294
     58 H26         7.9170    1.8020    1.4420 h1        1 MOL      0.118930
     59 H27         6.8360    1.3070    0.0350 h1        1 MOL      0.118930
     60 N6          6.3960   -1.1270    1.3850 n         1 MOL     -0.334591
     61 C19         6.5500   -2.5310    1.4020 c3        1 MOL     -0.015059
     62 C20         6.4310   -3.1300   -0.0440 c         1 MOL      0.457631
     63 O10         6.5350   -4.3530   -0.0700 o         1 MOL     -0.507567
     64 C21         5.6170   -3.1950    2.4480 c3        1 MOL     -0.142035
     65 C22         4.1050   -2.9800    2.2200 c         1 MOL      0.754784
     66 O11         3.6720   -2.3090    1.2700 o         1 MOL     -0.687494
     67 O12         3.3200   -3.6530    2.9050 o         1 MOL     -0.687494
     68 H28         5.5090   -0.6440    1.2860 hn        1 MOL      0.172073
     69 H29         7.5840   -2.7780    1.6520 h1        1 MOL      0.108070
     70 H30         5.9720   -2.8900    3.4330 hc        1 MOL      0.059927
     71 H31         5.8160   -4.2620    2.4750 hc        1 MOL      0.059927
     72 N7          6.3860   -2.3960   -1.1430 n         1 MOL     -0.316518
     73 C23         6.3660   -3.0150   -2.4820 c3        1 MOL     -0.098778
     74 C24         5.0870   -3.7310   -2.8720 c         1 MOL      0.530728
     75 O13         5.0380   -4.6470   -3.6710 o         1 MOL     -0.586928
     76 H32         6.0340   -1.4470   -1.1530 hn        1 MOL      0.280344
     77 H33         7.2000   -3.7130   -2.5600 h1        1 MOL      0.076051
     78 H34         6.4180   -2.1910   -3.1810 h1        1 MOL      0.076051
     79 N8          3.9540   -3.3660   -2.3000 n         1 MOL     -0.099388
     80 C25         2.5940   -3.8070   -2.6190 c3        1 MOL     -0.269058
     81 C26         1.6000   -2.6860   -2.3950 c         1 MOL      0.795606
     82 O14         1.8270   -1.7410   -1.6280 o         1 MOL     -0.694431
     83 C27         2.2020   -5.0240   -1.7140 c3        1 MOL      0.330901
     84 C28         2.8320   -6.3350   -2.1260 c3        1 MOL     -0.308659
     85 O15         2.6210   -4.9320   -0.3570 oh        1 MOL     -0.556068
     86 H35         4.0220   -2.5750   -1.6670 hn        1 MOL      0.142475
     87 H36         2.5200   -4.1230   -3.6580 h1        1 MOL      0.107717
     88 H37         1.1290   -5.2090   -1.7270 h1        1 MOL     -0.016430
     89 H38         2.0150   -4.3350    0.0850 ho        1 MOL      0.391540
     90 H39         2.4330   -7.0480   -1.4060 hc        1 MOL      0.085913
     91 H40         2.4790   -6.7530   -3.0680 hc        1 MOL      0.085913
     92 H41         3.9130   -6.3990   -2.0550 hc        1 MOL      0.085913
     93 N9          0.4960   -2.6710   -3.0870 n         1 MOL     -0.674990
     94 C29        -0.5530   -1.6430   -2.9720 c3        1 MOL      0.036230
     95 C30        -1.7920   -2.3830   -2.5340 c         1 MOL      0.453900
     96 O16        -2.1920   -3.3030   -3.2900 o         1 MOL     -0.554641
     97 C31        -0.8210   -0.9020   -4.3110 c3        1 MOL      0.223716
     98 C32         0.3560   -0.0830   -4.8120 c3        1 MOL      0.035578
     99 C33        -2.1980   -0.2100   -4.2630 c3        1 MOL     -0.247023
    100 C34         0.2510    0.1170   -6.3150 c3        1 MOL     -0.291887
    101 H42         0.3040   -3.4710   -3.6690 hn        1 MOL      0.339294
    102 H43        -0.2910   -0.9490   -2.1730 h1        1 MOL      0.071641
    103 H44        -0.9510   -1.6820   -5.0560 hc        1 MOL      0.008368
    104 H45         1.2850   -0.5920   -4.5740 hc        1 MOL      0.032740
    105 H46         0.4360    0.8640   -4.2830 hc        1 MOL      0.032740
    106 H47        -2.2510    0.5100   -3.4470 hc        1 MOL      0.049485
    107 H48        -2.3820    0.3300   -5.1890 hc        1 MOL      0.049485
    108 H49        -2.9760   -0.9670   -4.1130 hc        1 MOL      0.049485
    109 H50         1.1190    0.6790   -6.6490 hc        1 MOL      0.065197
    110 H51         0.1390   -0.8490   -6.8090 hc        1 MOL      0.065197
    111 H52        -0.6090    0.6950   -6.6750 hc        1 MOL      0.065197
    112 N10        -2.3660   -2.0880   -1.3790 n         1 MOL     -0.178558
    113 C35        -3.6820   -2.5860   -0.8980 c3        1 MOL     -0.048541
    114 C36        -4.9590   -1.8220   -1.4440 c         1 MOL      0.399269
    115 O17        -4.9010   -0.6910   -1.9460 o         1 MOL     -0.389365
    116 C37        -3.5990   -2.6970    0.6090 c3        1 MOL      0.095232
    117 C38        -2.2530   -3.2530    1.1820 c3        1 MOL     -0.402959
    118 O18        -3.8500   -1.4520    1.1680 oh        1 MOL     -0.436705
    119 H53        -1.9440   -1.4450   -0.7240 hn        1 MOL      0.238963
    120 H54        -3.7380   -3.6250   -1.2290 h1        1 MOL      0.069628
    121 H55        -4.3750   -3.3240    1.0510 h1        1 MOL      0.039758
    122 H56        -3.1030   -1.3680    1.7670 ho        1 MOL      0.362999
    123 H57        -2.1490   -4.2700    0.8060 hc        1 MOL      0.127265
    124 H58        -1.3850   -2.6410    0.9380 hc        1 MOL      0.127265
    125 H59        -2.2910   -3.3800    2.2630 hc        1 MOL      0.127265
    126 N11        -6.1660   -2.3640   -1.1980 n         1 MOL     -0.295681
    127 C39        -7.4280   -1.6000   -1.2940 c3        1 MOL     -0.122783
    128 C40        -7.4620   -0.3730   -0.3640 c         1 MOL      0.485032
    129 O19        -7.9040    0.6430   -0.8470 o         1 MOL     -0.488569
    130 C41        -8.5530   -2.4600   -0.7530 c3        1 MOL      0.360093
    131 C42        -8.8690   -3.7370   -1.5380 c3        1 MOL     -0.336624
    132 O20        -8.2620   -2.8760    0.5620 oh        1 MOL     -0.709361
    133 H60        -6.2940   -3.2980   -0.8530 hn        1 MOL      0.258465
    134 H61        -7.6750   -1.3690   -2.3250 h1        1 MOL      0.132782
    135 H62        -9.4570   -1.8400   -0.7970 h1        1 MOL      0.019838
    136 H63        -8.9640   -3.4790    0.8240 ho        1 MOL      0.420065
    137 H64        -7.9350   -4.2850   -1.6530 hc        1 MOL      0.095086
    138 H65        -9.7450   -4.2530   -1.1350 hc        1 MOL      0.095086
    139 H66        -9.1320   -3.3920   -2.5330 hc        1 MOL      0.095086
    140 N12        -6.9150   -0.4350    0.8850 n         1 MOL     -0.293430
    141 C43        -6.8560    0.6690    1.8640 c3        1 MOL     -0.148891
    142 C44        -6.0230    1.8920    1.4280 c         1 MOL      0.391121
    143 O21        -6.2240    3.0330    1.9160 o         1 MOL     -0.521203
    144 C45        -6.2860    0.1460    3.2390 c3        1 MOL      0.024439
    145 C46        -7.0910   -1.0570    3.7900 c3        1 MOL      0.036551
    146 C47        -6.6560   -1.2720    5.2270 c3        1 MOL      0.057879
    147 C48        -7.1900   -2.6050    5.6040 c3        1 MOL      0.146116
    148 N13        -6.9700   -2.9710    7.0490 n4        1 MOL     -0.465952
    149 H67        -6.6230   -1.3350    1.2280 hn        1 MOL      0.268823
    150 H68        -7.8570    1.0580    2.0220 h1        1 MOL      0.128729
    151 H69        -6.3330    0.9460    3.9630 hc        1 MOL      0.012130
    152 H70        -5.2340   -0.0550    3.0640 hc        1 MOL      0.012130
    153 H71        -6.7580   -1.8840    3.1650 hc        1 MOL      0.006368
    154 H72        -8.1640   -0.9170    3.6990 hc        1 MOL      0.006368
    155 H73        -7.0650   -0.4620    5.8300 hc        1 MOL      0.009477
    156 H74        -5.5710   -1.2730    5.2570 hc        1 MOL      0.009477
    157 H75        -6.7500   -3.3640    4.9540 hx        1 MOL      0.037310
    158 H76        -8.2410   -2.5900    5.3260 hx        1 MOL      0.037310
    159 H77        -7.3260   -3.9070    7.2030 hn        1 MOL      0.325618
    160 H78        -5.9830   -2.9920    7.2650 hn        1 MOL      0.325618
    161 H79        -7.5490   -2.3950    7.6380 hn        1 MOL      0.325618
    162 N14        -5.0150    1.6530    0.5980 n         1 MOL      0.024500
    163 C49        -4.0810    2.7020    0.0710 c3        1 MOL     -0.322772
    164 C50        -4.6440    3.2340   -1.2320 c         1 MOL      0.499167
    165 O22        -4.5130    4.5000   -1.5630 o         1 MOL     -0.579684
    166 C51        -2.6870    2.1740   -0.2610 c3        1 MOL      0.545194
    167 C52        -1.9980    1.6190    0.9820 c3        1 MOL     -0.380328
    168 C53        -0.6770    1.0220    0.5170 c         1 MOL      0.886627
    169 O23         0.4290    1.5190    0.8130 o         1 MOL     -0.735596
    170 O24        -0.7820   -0.0620   -0.0130 o         1 MOL     -0.735596
    171 H80        -4.8940    0.6840    0.3460 hn        1 MOL      0.066218
    172 H81        -4.0430    3.5600    0.7380 h1        1 MOL      0.138379
    173 H82        -2.2070    3.0720   -0.6380 hc        1 MOL     -0.126093
    174 H83        -2.6980    1.4520   -1.0790 hc        1 MOL     -0.126093
    175 H84        -2.7130    0.8910    1.3450 hc        1 MOL      0.040851
    176 H85        -1.8090    2.4950    1.6020 hc        1 MOL      0.040851
    177 N15        -5.3440    2.3830   -2.0290 n         1 MOL     -0.179940
    178 C54        -5.8410    2.5920   -3.3950 c3        1 MOL     -0.195019
    179 H86        -6.9290    2.6560   -3.3790 h1        1 MOL      0.092954
    180 H87        -5.4290    3.5180   -3.7960 h1        1 MOL      0.092954
    181 H88        -5.5360    1.7560   -4.0250 h1        1 MOL      0.092954
    182 H89        -5.7130    1.5260   -1.6360 hn        1 MOL      0.169561
    183 Ca1         1.7360   -0.7220    0.9000 Ca        1 MOL      1.717034
    184 O25         0.0560   -0.9470    3.0370 oh        1 MOL     -0.911911
    185 H90         0.6910   -0.8090    3.7390 ho        1 MOL      0.414287
    186 H91        -0.7590   -1.1500    3.4840 ho        1 MOL      0.414287
    187 O26         1.0410   -3.5130    1.3640 oh        1 MOL     -0.911911
    188 H92         0.3180   -3.7580    1.9380 ho        1 MOL      0.414287
    189 H93         1.8240   -3.6680    1.8940 ho        1 MOL      0.414287
@<TRIPOS>BOND
     1    1    2 1   
     2    1    4 1   
     3    1    5 1   
     4    1    6 1   
     5    2    3 2   
     6    2    7 1   
     7    7    8 1   
     8    7   15 1   
     9    8    9 1   
    10    8   11 1   
    11    8   16 1   
    12    9   10 2   
    13    9   19 1   
    14   11   12 1   
    15   11   17 1   
    16   11   18 1   
    17   12   13 1   
    18   12   14 1   
    19   19   20 1   
    20   19   28 1   
    21   20   21 1   
    22   20   23 1   
    23   20   29 1   
    24   21   22 2   
    25   21   41 1   
    26   23   24 1   
    27   23   30 1   
    28   23   31 1   
    29   24   25 1   
    30   24   32 1   
    31   24   33 1   
    32   25   26 1   
    33   25   34 1   
    34   25   35 1   
    35   26   27 1   
    36   26   36 1   
    37   26   37 1   
    38   27   38 1   
    39   27   39 1   
    40   27   40 1   
    41   41   42 1   
    42   41   49 1   
    43   42   43 1   
    44   42   45 1   
    45   42   50 1   
    46   43   44 2   
    47   43   53 1   
    48   45   46 1   
    49   45   51 1   
    50   45   52 1   
    51   46   47 1   
    52   46   48 1   
    53   53   54 1   
    54   53   57 1   
    55   54   55 1   
    56   54   58 1   
    57   54   59 1   
    58   55   56 2   
    59   55   60 1   
    60   60   61 1   
    61   60   68 1   
    62   61   62 1   
    63   61   64 1   
    64   61   69 1   
    65   62   63 2   
    66   62   72 1   
    67   64   65 1   
    68   64   70 1   
    69   64   71 1   
    70   65   66 1   
    71   65   67 1   
    72   72   73 1   
    73   72   76 1   
    74   73   74 1   
    75   73   77 1   
    76   73   78 1   
    77   74   75 2   
    78   74   79 1   
    79   79   80 1   
    80   79   86 1   
    81   80   81 1   
    82   80   83 1   
    83   80   87 1   
    84   81   82 2   
    85   81   93 1   
    86   83   84 1   
    87   83   85 1   
    88   83   88 1   
    89   84   90 1   
    90   84   91 1   
    91   84   92 1   
    92   85   89 1   
    93   93   94 1   
    94   93  101 1   
    95   94   95 1   
    96   94   97 1   
    97   94  102 1   
    98   95   96 2   
    99   95  112 1   
   100   97   98 1   
   101   97   99 1   
   102   97  103 1   
   103   98  100 1   
   104   98  104 1   
   105   98  105 1   
   106   99  106 1   
   107   99  107 1   
   108   99  108 1   
   109  100  109 1   
   110  100  110 1   
   111  100  111 1   
   112  112  113 1   
   113  112  119 1   
   114  113  114 1   
   115  113  116 1   
   116  113  120 1   
   117  114  115 2   
   118  114  126 1   
   119  116  117 1   
   120  116  118 1   
   121  116  121 1   
   122  117  123 1   
   123  117  124 1   
   124  117  125 1   
   125  118  122 1   
   126  126  127 1   
   127  126  133 1   
   128  127  128 1   
   129  127  130 1   
   130  127  134 1   
   131  128  129 2   
   132  128  140 1   
   133  130  131 1   
   134  130  132 1   
   135  130  135 1   
   136  131  137 1   
   137  131  138 1   
   138  131  139 1   
   139  132  136 1   
   140  140  141 1   
   141  140  149 1   
   142  141  142 1   
   143  141  144 1   
   144  141  150 1   
   145  142  143 2   
   146  142  162 1   
   147  144  145 1   
   148  144  151 1   
   149  144  152 1   
   150  145  146 1   
   151  145  153 1   
   152  145  154 1   
   153  146  147 1   
   154  146  155 1   
   155  146  156 1   
   156  147  148 1   
   157  147  157 1   
   158  147  158 1   
   159  148  159 1   
   160  148  160 1   
   161  148  161 1   
   162  162  163 1   
   163  162  171 1   
   164  163  164 1   
   165  163  166 1   
   166  163  172 1   
   167  164  165 2   
   168  164  177 1   
   169  166  167 1   
   170  166  173 1   
   171  166  174 1   
   172  167  168 1   
   173  167  175 1   
   174  167  176 1   
   175  168  169 1   
   176  168  170 1   
   177  177  178 1   
   178  177  182 1   
   179  178  179 1   
   180  178  180 1   
   181  178  181 1   
   182  184  185 1   
   183  184  186 1   
   184  187  188 1   
   185  187  189 1   
@<TRIPOS>SUBSTRUCTURE
     1 MOL         1 TEMP              0 ****  ****    0 ROOT
