@<TRIPOS>MOLECULE
MOL
  183   181     1     0     0
SMALL
resp


@<TRIPOS>ATOM
      1 C1         -0.4600    3.1510    5.8210 c3        1 MOL     -0.266222
      2 C2         -0.8560    2.9880    4.3090 c         1 MOL      0.690248
      3 O1         -0.2110    3.5550    3.3800 o         1 MOL     -0.553905
      4 H1         -1.1800    2.6210    6.4440 hc        1 MOL      0.061172
      5 H2          0.5350    2.7360    5.9830 hc        1 MOL      0.061172
      6 H3         -0.4610    4.2080    6.0850 hc        1 MOL      0.061172
      7 N1         -1.9590    2.2850    4.0160 n         1 MOL     -0.556374
      8 C3         -2.4610    2.1190    2.6630 c3        1 MOL      0.069678
      9 C4         -2.9480    3.4140    2.0550 c         1 MOL      0.572620
     10 O2         -3.3010    4.3690    2.7340 o         1 MOL     -0.596335
     11 C5         -3.6010    1.0930    2.7500 c3        1 MOL     -0.225417
     12 C6         -4.3080    0.7040    1.4840 c         1 MOL      0.835990
     13 O3         -5.4610    0.2060    1.6110 o         1 MOL     -0.686601
     14 O4         -3.8860    0.8880    0.3400 o         1 MOL     -0.686601
     15 H4         -2.3980    1.8490    4.8100 hn        1 MOL      0.319227
     16 H5         -1.7520    1.6630    1.9740 h1        1 MOL      0.039328
     17 H6         -4.3550    1.4250    3.4610 hc        1 MOL      0.045822
     18 H7         -3.1410    0.2370    3.2560 hc        1 MOL      0.045822
     19 N2         -2.7760    3.5360    0.7370 n         1 MOL     -0.337792
     20 C7         -3.0280    4.7620   -0.0580 c3        1 MOL     -0.037766
     21 C8         -4.1400    4.4960   -1.1310 c         1 MOL      0.346310
     22 O5         -4.3920    5.4150   -1.8680 o         1 MOL     -0.543315
     23 C9         -1.7480    5.3780   -0.6760 c3        1 MOL      0.457436
     24 C10        -0.5300    5.2870    0.3370 c3        1 MOL     -0.109724
     25 C11        -2.0220    6.7860   -1.2460 c3        1 MOL     -0.253212
     26 C12         0.8450    5.7760   -0.2540 c3        1 MOL     -0.136566
     27 H8         -2.5080    2.6680    0.3040 hn        1 MOL      0.215015
     28 H9         -3.3570    5.5130    0.6590 h1        1 MOL      0.054045
     29 H10        -1.4970    4.8110   -1.5690 hc        1 MOL     -0.027541
     30 H11        -0.3920    4.2370    0.6030 hc        1 MOL      0.040773
     31 H12        -0.8030    5.8510    1.2290 hc        1 MOL      0.040773
     32 H13        -1.0310    7.1160   -1.5730 hc        1 MOL      0.028132
     33 H14        -2.5710    6.7640   -2.1810 hc        1 MOL      0.028132
     34 H15        -2.4310    7.4640   -0.4880 hc        1 MOL      0.028132
     35 H16         1.6900    5.6290    0.4130 hc        1 MOL      0.016645
     36 H17         1.0560    5.2120   -1.1610 hc        1 MOL      0.016645
     37 H18         0.7590    6.8510   -0.4180 hc        1 MOL      0.016645
     38 N3         -4.5880    3.2590   -1.3430 n         1 MOL      0.000300
     39 C13        -5.6750    3.0060   -2.3060 c3        1 MOL      0.044811
     40 C14        -7.0330    2.6720   -1.6630 c         1 MOL      0.333722
     41 O6         -8.1210    2.9300   -2.2450 o         1 MOL     -0.539219
     42 C15        -5.2690    1.8500   -3.2140 c3        1 MOL      0.270354
     43 C16        -3.8480    1.8840   -3.6890 c         1 MOL      0.566702
     44 O7         -3.0290    1.3130   -2.9190 o         1 MOL     -0.654419
     45 O8         -3.5400    2.4950   -4.6680 o         1 MOL     -0.654419
     46 H19        -4.3460    2.4740   -0.7580 hn        1 MOL     -0.059129
     47 H20        -5.7970    3.8600   -2.9780 h1        1 MOL      0.054266
     48 H21        -5.8990    2.0340   -4.0930 hc        1 MOL     -0.106866
     49 H22        -5.5810    0.8990   -2.7920 hc        1 MOL     -0.106866
     50 N4         -7.0000    2.1910   -0.4720 n         1 MOL     -0.243182
     51 C17        -8.2250    1.5940    0.1070 c3        1 MOL     -0.078870
     52 C18        -8.4450    0.1290   -0.3160 c         1 MOL      0.456412
     53 O9         -9.5730   -0.2880   -0.5380 o         1 MOL     -0.581673
     54 H23        -6.0810    2.0540   -0.0690 hn        1 MOL      0.187080
     55 H24        -9.0430    2.2380   -0.2190 h1        1 MOL      0.079818
     56 H25        -8.2130    1.5930    1.1940 h1        1 MOL      0.079818
     57 N5         -7.4090   -0.7070   -0.4960 n         1 MOL     -0.116029
     58 C19        -7.5170   -2.1530   -0.7200 c3        1 MOL     -0.036143
     59 C20        -7.3450   -3.0140    0.5420 c         1 MOL      0.452755
     60 O10        -7.8810   -4.0940    0.5170 o         1 MOL     -0.550552
     61 C21        -6.5800   -2.6880   -1.8140 c3        1 MOL     -0.111760
     62 C22        -5.1510   -2.1970   -1.7070 c         1 MOL      0.679612
     63 O11        -4.5150   -1.7890   -2.7180 o         1 MOL     -0.752506
     64 O12        -4.6240   -2.0730   -0.5950 o         1 MOL     -0.752506
     65 H26        -6.5150   -0.3700   -0.1730 hn        1 MOL      0.193192
     66 H27        -8.5390   -2.4200   -0.9760 h1        1 MOL      0.079327
     67 H28        -6.9360   -2.2810   -2.7600 hc        1 MOL      0.037011
     68 H29        -6.6060   -3.7780   -1.9330 hc        1 MOL      0.037011
     69 N6         -6.5310   -2.5060    1.5070 n         1 MOL     -0.240452
     70 C23        -6.3200   -3.1780    2.7720 c3        1 MOL     -0.033988
     71 C24        -5.0350   -3.9730    2.8740 c         1 MOL      0.597284
     72 O13        -4.9860   -4.7840    3.7690 o         1 MOL     -0.609959
     73 H30        -6.1120   -1.5880    1.3930 hn        1 MOL      0.157968
     74 H31        -7.1560   -3.8450    2.9500 h1        1 MOL      0.042489
     75 H32        -6.2510   -2.4300    3.5600 h1        1 MOL      0.042489
     76 N7         -4.0650   -3.8430    1.9270 n         1 MOL     -0.383551
     77 C25        -2.6930   -4.4690    1.7810 c3        1 MOL      0.018339
     78 C26        -1.7500   -3.2990    1.4930 c         1 MOL      0.534263
     79 O14        -2.0840   -2.2980    0.8610 o         1 MOL     -0.604546
     80 C27        -2.8190   -5.5830    0.7130 c3        1 MOL     -0.034258
     81 C28        -2.9050   -5.1840   -0.7750 c3        1 MOL     -0.362600
     82 C29        -1.8120   -4.3680   -1.4150 c         1 MOL      0.524136
     83 N8         -0.5570   -4.7910   -1.3850 n         1 MOL     -0.631737
     84 O15        -1.9310   -3.2320   -1.7840 o         1 MOL     -0.480976
     85 H33        -4.3320   -3.3200    1.1060 hn        1 MOL      0.289526
     86 H34        -2.4140   -4.9160    2.7300 h1        1 MOL      0.077540
     87 H35        -3.5830   -6.3060    0.9900 hc        1 MOL      0.039617
     88 H36        -1.9590   -6.2420    0.8770 hc        1 MOL      0.039617
     89 H37        -3.8390   -4.6380   -0.9500 hc        1 MOL      0.144429
     90 H38        -3.1470   -6.0680   -1.3610 hc        1 MOL      0.144429
     91 H39        -0.4090   -5.7870   -1.2740 hn        1 MOL      0.300801
     92 H40         0.1600   -4.1870   -1.7740 hn        1 MOL      0.300801
     93 N9         -0.4790   -3.4120    1.9130 n         1 MOL     -0.476599
     94 C30         0.6160   -2.4120    1.9310 c3        1 MOL      0.062174
     95 C31         1.8030   -2.9590    1.1730 c         1 MOL      0.317318
     96 O16         2.4300   -3.9170    1.5800 o         1 MOL     -0.541525
     97 C32         0.7430   -1.8670    3.4080 c3        1 MOL      0.247284
     98 C33         2.1120   -1.3930    3.6220 c3        1 MOL     -0.206773
     99 C34        -0.3070   -0.7550    3.4880 c3        1 MOL     -0.206773
    100 H41        -0.3160   -4.2160    2.4990 hn        1 MOL      0.268152
    101 H42         0.2890   -1.5990    1.2770 h1        1 MOL      0.115796
    102 H43         0.4180   -2.6200    4.1320 hc        1 MOL     -0.027312
    103 H44         2.1460   -1.0050    4.6430 hc        1 MOL      0.025362
    104 H45         2.7970   -2.2380    3.5550 hc        1 MOL      0.025362
    105 H46         2.4230   -0.5930    2.9430 hc        1 MOL      0.025362
    106 H47         0.0970    0.0730    2.9010 hc        1 MOL      0.025362
    107 H48        -1.2440   -0.9850    2.9970 hc        1 MOL      0.025362
    108 H49        -0.3400   -0.3280    4.4870 hc        1 MOL      0.025362
    109 N10         2.0860   -2.2580    0.0850 n         1 MOL     -0.044942
    110 C35         3.3200   -2.4850   -0.6330 c3        1 MOL     -0.023748
    111 C36         4.5020   -1.7350    0.0250 c         1 MOL      0.338680
    112 O17         4.2780   -0.7340    0.6490 o         1 MOL     -0.301806
    113 C37         3.1800   -2.1700   -2.1570 c3        1 MOL     -0.016457
    114 C38         2.1300   -2.9750   -2.9150 c         1 MOL      0.644285
    115 N11         0.8840   -2.5820   -2.9490 n         1 MOL     -0.786532
    116 O18         2.4360   -4.0320   -3.3980 o         1 MOL     -0.612667
    117 H50         1.4350   -1.6240   -0.3370 hn        1 MOL      0.249157
    118 H51         3.5690   -3.5420   -0.6890 h1        1 MOL      0.030602
    119 H52         4.0790   -2.4340   -2.7010 hc        1 MOL      0.037664
    120 H53         2.8960   -1.1640   -2.4610 hc        1 MOL      0.037664
    121 H54         0.5760   -1.7890   -2.4010 hn        1 MOL      0.366992
    122 H55         0.3330   -2.9320   -3.7180 hn        1 MOL      0.366992
    123 N12         5.7690   -2.1240   -0.1550 n         1 MOL     -0.372700
    124 C39         6.9730   -1.4370    0.4300 c3        1 MOL      0.023079
    125 C40         6.9930    0.0550    0.1300 c         1 MOL      0.553314
    126 O19         7.3210    0.8870    0.9900 o         1 MOL     -0.557994
    127 C41         8.1640   -2.1460   -0.2130 c3        1 MOL     -0.191843
    128 C42         9.4840   -1.6050    0.1170 ca        1 MOL      0.137984
    129 C43        10.0760   -1.7940    1.3760 ca        1 MOL     -0.253584
    130 C44        10.1690   -0.7400   -0.7730 ca        1 MOL     -0.253584
    131 C45        11.1640   -0.9780    1.7900 ca        1 MOL     -0.193161
    132 C46        11.2750    0.0860   -0.4330 ca        1 MOL     -0.193161
    133 C47        11.7730   -0.1450    0.8800 ca        1 MOL      0.299498
    134 O20        12.8550    0.5160    1.3430 oh        1 MOL     -0.545087
    135 H56         5.9770   -2.9810   -0.6510 hn        1 MOL      0.270928
    136 H57         6.9220   -1.6110    1.5080 h1        1 MOL      0.078485
    137 H58         8.0800   -2.1420   -1.2980 hc        1 MOL      0.081829
    138 H59         8.2440   -3.1530    0.2120 hc        1 MOL      0.081829
    139 H60         9.5940   -2.4280    2.1190 ha        1 MOL      0.153817
    140 H61         9.7930   -0.6850   -1.7870 ha        1 MOL      0.153817
    141 H62        11.4980   -0.8910    2.8210 ha        1 MOL      0.135753
    142 H63        11.7570    0.7590   -1.1310 ha        1 MOL      0.135753
    143 H64        13.1840    1.1270    0.6850 ho        1 MOL      0.387211
    144 N13         6.4860    0.4690   -1.0190 n         1 MOL     -0.125951
    145 C48         6.3310    1.7980   -1.5400 c3        1 MOL     -0.169910
    146 C49         5.3260    2.6740   -0.7750 c         1 MOL      0.422686
    147 O21         5.5010    3.8970   -0.6380 o         1 MOL     -0.533129
    148 C50         6.0390    1.7570   -3.0120 c3        1 MOL      0.082210
    149 C51         7.0830    1.0360   -3.9000 c3        1 MOL     -0.166826
    150 C52         6.8040   -0.3940   -4.0430 c         1 MOL      0.791106
    151 O22         5.7460   -0.9510   -3.5770 o         1 MOL     -0.739454
    152 O23         7.7220   -0.9980   -4.6670 o         1 MOL     -0.739454
    153 H65         6.1500   -0.2060   -1.6870 hn        1 MOL      0.098507
    154 H66         7.2350    2.4180   -1.5160 h1        1 MOL      0.083893
    155 H67         5.9600    2.7870   -3.3680 hc        1 MOL     -0.008399
    156 H68         5.0330    1.3590   -3.2070 hc        1 MOL     -0.008399
    157 H69         8.0930    1.1350   -3.5010 hc        1 MOL      0.022750
    158 H70         7.0980    1.4770   -4.9010 hc        1 MOL      0.022750
    159 N14         4.3700    1.9480   -0.1790 n         1 MOL     -0.314870
    160 C53         3.3460    2.4930    0.8010 c3        1 MOL      0.022965
    161 C54         3.8170    2.6020    2.3070 c         1 MOL      0.422002
    162 O24         3.4560    3.5020    3.0220 o         1 MOL     -0.545948
    163 C55         2.0630    1.6310    0.6500 c3        1 MOL      0.349992
    164 C56         1.7090    1.1390   -0.7870 c3        1 MOL     -0.145224
    165 C57         0.2750    0.5920   -0.8070 c         1 MOL      0.783449
    166 O25        -0.7610    1.2700   -0.6460 o         1 MOL     -0.786869
    167 O26         0.1030   -0.6040   -1.0180 o         1 MOL     -0.786869
    168 H71         4.3550    0.9580   -0.3730 hn        1 MOL      0.267139
    169 H72         3.1500    3.4970    0.4330 h1        1 MOL      0.080723
    170 H73         1.2870    2.1730    1.1800 hc        1 MOL     -0.073978
    171 H74         2.1680    0.7180    1.2340 hc        1 MOL     -0.073978
    172 H75         2.4190    0.3620   -1.0600 hc        1 MOL     -0.009516
    173 H76         1.7520    1.9790   -1.4720 hc        1 MOL     -0.009516
    174 N15         4.5610    1.5830    2.6410 n         1 MOL     -0.023834
    175 C58         5.3890    1.4940    3.9070 c3        1 MOL     -0.305360
    176 H77         4.8240    0.9620    4.6730 h1        1 MOL      0.105337
    177 H78         6.3140    0.9560    3.7000 h1        1 MOL      0.105337
    178 H79         5.6230    2.4980    4.2600 h1        1 MOL      0.105337
    179 H80         4.7770    0.9020    1.9280 hn        1 MOL      0.051742
    180 Ca1        -2.5580   -0.6900   -1.2090 Ca        1 MOL      1.752536
    181 O27        -1.4810   -0.6640   -3.7750 oh        1 MOL     -0.871982
    182 H81        -2.0910    0.0310   -4.0110 ho        1 MOL      0.396874
    183 H82        -0.9180   -0.7510   -4.5380 ho        1 MOL      0.396874
@<TRIPOS>BOND
     1    1    2 1   
     2    1    4 1   
     3    1    5 1   
     4    1    6 1   
     5    2    3 2   
     6    2    7 1   
     7    7    8 1   
     8    7   15 1   
     9    8    9 1   
    10    8   11 1   
    11    8   16 1   
    12    9   10 2   
    13    9   19 1   
    14   11   12 1   
    15   11   17 1   
    16   11   18 1   
    17   12   13 1   
    18   12   14 1   
    19   19   20 1   
    20   19   27 1   
    21   20   21 1   
    22   20   23 1   
    23   20   28 1   
    24   21   22 2   
    25   21   38 1   
    26   23   24 1   
    27   23   25 1   
    28   23   29 1   
    29   24   26 1   
    30   24   30 1   
    31   24   31 1   
    32   25   32 1   
    33   25   33 1   
    34   25   34 1   
    35   26   35 1   
    36   26   36 1   
    37   26   37 1   
    38   38   39 1   
    39   38   46 1   
    40   39   40 1   
    41   39   42 1   
    42   39   47 1   
    43   40   41 2   
    44   40   50 1   
    45   42   43 1   
    46   42   48 1   
    47   42   49 1   
    48   43   44 1   
    49   43   45 1   
    50   50   51 1   
    51   50   54 1   
    52   51   52 1   
    53   51   55 1   
    54   51   56 1   
    55   52   53 2   
    56   52   57 1   
    57   57   58 1   
    58   57   65 1   
    59   58   59 1   
    60   58   61 1   
    61   58   66 1   
    62   59   60 2   
    63   59   69 1   
    64   61   62 1   
    65   61   67 1   
    66   61   68 1   
    67   62   63 1   
    68   62   64 1   
    69   69   70 1   
    70   69   73 1   
    71   70   71 1   
    72   70   74 1   
    73   70   75 1   
    74   71   72 2   
    75   71   76 1   
    76   76   77 1   
    77   76   85 1   
    78   77   78 1   
    79   77   80 1   
    80   77   86 1   
    81   78   79 2   
    82   78   93 1   
    83   80   81 1   
    84   80   87 1   
    85   80   88 1   
    86   81   82 1   
    87   81   89 1   
    88   81   90 1   
    89   82   83 1   
    90   82   84 2   
    91   83   91 1   
    92   83   92 1   
    93   93   94 1   
    94   93  100 1   
    95   94   95 1   
    96   94   97 1   
    97   94  101 1   
    98   95   96 2   
    99   95  109 1   
   100   97   98 1   
   101   97   99 1   
   102   97  102 1   
   103   98  103 1   
   104   98  104 1   
   105   98  105 1   
   106   99  106 1   
   107   99  107 1   
   108   99  108 1   
   109  109  110 1   
   110  109  117 1   
   111  110  111 1   
   112  110  113 1   
   113  110  118 1   
   114  111  112 2   
   115  111  123 1   
   116  113  114 1   
   117  113  119 1   
   118  113  120 1   
   119  114  115 1   
   120  114  116 2   
   121  115  121 1   
   122  115  122 1   
   123  123  124 1   
   124  123  135 1   
   125  124  125 1   
   126  124  127 1   
   127  124  136 1   
   128  125  126 2   
   129  125  144 1   
   130  127  128 1   
   131  127  137 1   
   132  127  138 1   
   133  128  129 ar  
   134  128  130 ar  
   135  129  131 ar  
   136  129  139 1   
   137  130  132 ar  
   138  130  140 1   
   139  131  133 ar  
   140  131  141 1   
   141  132  133 ar  
   142  132  142 1   
   143  133  134 1   
   144  134  143 1   
   145  144  145 1   
   146  144  153 1   
   147  145  146 1   
   148  145  148 1   
   149  145  154 1   
   150  146  147 2   
   151  146  159 1   
   152  148  149 1   
   153  148  155 1   
   154  148  156 1   
   155  149  150 1   
   156  149  157 1   
   157  149  158 1   
   158  150  151 1   
   159  150  152 1   
   160  159  160 1   
   161  159  168 1   
   162  160  161 1   
   163  160  163 1   
   164  160  169 1   
   165  161  162 2   
   166  161  174 1   
   167  163  164 1   
   168  163  170 1   
   169  163  171 1   
   170  164  165 1   
   171  164  172 1   
   172  164  173 1   
   173  165  166 1   
   174  165  167 1   
   175  174  175 1   
   176  174  179 1   
   177  175  176 1   
   178  175  177 1   
   179  175  178 1   
   180  181  182 1   
   181  181  183 1   
@<TRIPOS>SUBSTRUCTURE
     1 MOL         1 TEMP              0 ****  ****    0 ROOT
