@<TRIPOS>MOLECULE
MOL
  189   185     1     0     0
SMALL
resp


@<TRIPOS>ATOM
      1 C1          0.3940    2.6980   -5.9280 c3        1 MOL     -0.382386
      2 C2          0.6850    2.5830   -4.4120 c         1 MOL      0.683116
      3 O1         -0.2270    2.7860   -3.6900 o         1 MOL     -0.583999
      4 H1          1.3330    2.6650   -6.4800 hc        1 MOL      0.094406
      5 H2         -0.2400    1.8680   -6.2400 hc        1 MOL      0.094406
      6 H3         -0.1140    3.6410   -6.1300 hc        1 MOL      0.094406
      7 N1          1.9530    2.2270   -4.0600 n         1 MOL     -0.531432
      8 C3          2.2910    1.9610   -2.6320 c3        1 MOL      0.103197
      9 C4          2.5000    3.2400   -1.8040 c         1 MOL      0.098084
     10 O2          3.3740    4.0950   -2.1240 o         1 MOL     -0.465724
     11 C5          3.6360    1.1600   -2.6790 c3        1 MOL     -0.136849
     12 C6          4.0270    0.5750   -1.3310 c         1 MOL      0.859858
     13 O3          5.0860   -0.0390   -1.3210 o         1 MOL     -0.721548
     14 O4          3.2740    0.6820   -0.3780 o         1 MOL     -0.721548
     15 H4          2.6440    2.0130   -4.7680 hn        1 MOL      0.329084
     16 H5          1.4940    1.3370   -2.2200 h1        1 MOL      0.077151
     17 H6          4.4820    1.7270   -3.0600 hc        1 MOL      0.041791
     18 H7          3.5650    0.3560   -3.4030 hc        1 MOL      0.041791
     19 N2          1.7100    3.3860   -0.7270 n         1 MOL     -0.188286
     20 C7          1.6080    4.6990   -0.0450 c3        1 MOL     -0.099676
     21 C8          2.6280    4.9050    1.0750 c         1 MOL      0.511417
     22 O5          2.7860    6.0220    1.5950 o         1 MOL     -0.596319
     23 C9          0.1600    4.9180    0.5270 c3        1 MOL      0.147752
     24 C10        -0.9410    5.1510   -0.4790 c3        1 MOL     -0.102911
     25 C11        -0.6410    6.3500   -1.4680 c3        1 MOL     -0.116708
     26 C12        -0.0760    5.8030   -2.7700 c3        1 MOL      0.185217
     27 N3          0.1100    6.8240   -3.7550 n4        1 MOL     -0.429801
     28 H8          1.1900    2.5750   -0.4140 hn        1 MOL      0.255226
     29 H9          1.6920    5.4660   -0.8280 h1        1 MOL      0.044851
     30 H10         0.1540    5.7620    1.2180 hc        1 MOL     -0.000881
     31 H11        -0.0620    4.1390    1.2520 hc        1 MOL     -0.000881
     32 H12        -1.9240    5.2500   -0.0230 hc        1 MOL      0.070491
     33 H13        -0.9300    4.2670   -1.1190 hc        1 MOL      0.070491
     34 H14        -0.0360    7.0940   -0.9520 hc        1 MOL      0.036395
     35 H15        -1.6000    6.8050   -1.7180 hc        1 MOL      0.036395
     36 H16        -0.7950    5.0940   -3.1790 hx        1 MOL      0.084439
     37 H17         0.8600    5.2630   -2.6630 hx        1 MOL      0.084439
     38 H18         0.9940    7.2340   -3.5150 hn        1 MOL      0.330139
     39 H19         0.2060    6.3730   -4.6560 hn        1 MOL      0.330139
     40 H20        -0.5480    7.5850   -3.6830 hn        1 MOL      0.330139
     41 N4          3.3080    3.8920    1.4780 n         1 MOL     -0.146967
     42 C13         4.3520    3.8710    2.4700 c3        1 MOL     -0.163136
     43 C14         5.5920    3.0930    2.0740 c         1 MOL      0.484842
     44 O6          6.5900    3.2350    2.7840 o         1 MOL     -0.490506
     45 C15         3.8230    3.2950    3.7870 c3        1 MOL     -0.019805
     46 C16         3.0710    1.9900    3.7970 c         1 MOL      0.717126
     47 O7          3.0430    1.3080    2.7710 o         1 MOL     -0.714404
     48 O8          2.4530    1.7220    4.8700 o         1 MOL     -0.714404
     49 H21         3.0290    3.0230    1.0430 hn        1 MOL      0.163376
     50 H22         4.6650    4.8750    2.7400 h1        1 MOL      0.132796
     51 H23         3.1160    4.0160    4.2070 hc        1 MOL      0.016652
     52 H24         4.6210    3.2660    4.5280 hc        1 MOL      0.016652
     53 N5          5.5730    2.4110    0.8830 n         1 MOL     -0.372312
     54 C17         6.7500    1.8780    0.2080 c3        1 MOL     -0.114611
     55 C18         7.3710    0.6680    0.8860 c         1 MOL      0.437664
     56 O9          8.6080    0.5490    1.0260 o         1 MOL     -0.567824
     57 H25         4.7120    2.2110    0.3920 hn        1 MOL      0.296372
     58 H26         7.4970    2.6750    0.2470 h1        1 MOL      0.094987
     59 H27         6.4990    1.6200   -0.8150 h1        1 MOL      0.094987
     60 N6          6.5080   -0.1770    1.4860 n         1 MOL     -0.053490
     61 C19         6.8820   -1.3620    2.2270 c3        1 MOL     -0.131275
     62 C20         7.0930   -2.5930    1.2310 c         1 MOL      0.409892
     63 O10         7.5390   -3.6470    1.7730 o         1 MOL     -0.519985
     64 C21         5.8720   -1.7320    3.2870 c3        1 MOL     -0.194092
     65 C22         4.4620   -1.9460    2.7280 c         1 MOL      0.756871
     66 O11         3.4840   -2.1450    3.5060 o         1 MOL     -0.692577
     67 O12         4.2000   -1.8250    1.5400 o         1 MOL     -0.692577
     68 H28         5.5430   -0.0700    1.2060 hn        1 MOL      0.039517
     69 H29         7.7880   -1.1550    2.7970 h1        1 MOL      0.141045
     70 H30         5.7840   -1.0540    4.1410 hc        1 MOL      0.077560
     71 H31         6.1250   -2.7170    3.6900 hc        1 MOL      0.077560
     72 N7          6.6940   -2.4770   -0.0480 n         1 MOL     -0.231228
     73 C23         6.7640   -3.5340   -1.0560 c3        1 MOL     -0.193306
     74 C24         5.4850   -4.3850   -1.2780 c         1 MOL      0.560648
     75 O13         5.5360   -5.4870   -1.7360 o         1 MOL     -0.554731
     76 H32         6.1530   -1.6930   -0.3720 hn        1 MOL      0.279283
     77 H33         7.6380   -4.1350   -0.8300 h1        1 MOL      0.100150
     78 H34         6.9330   -2.9390   -1.9580 h1        1 MOL      0.100150
     79 N8          4.3240   -3.8510   -0.8500 n         1 MOL     -0.212950
     80 C25         3.0200   -4.3410   -1.2350 c3        1 MOL     -0.280117
     81 C26         1.9350   -3.2710   -1.3190 c         1 MOL      0.822932
     82 O14         2.1460   -2.1510   -0.8660 o         1 MOL     -0.722698
     83 C27         2.5030   -5.3980   -0.2640 c3        1 MOL      0.414224
     84 C28         2.9680   -6.8450   -0.4520 c3        1 MOL     -0.419191
     85 O15         2.8590   -5.0260    1.0470 oh        1 MOL     -0.628455
     86 H35         4.3170   -2.9520   -0.3890 hn        1 MOL      0.238896
     87 H36         2.9950   -4.9110   -2.1620 h1        1 MOL      0.107555
     88 H37         1.4130   -5.4570   -0.2490 h1        1 MOL      0.021369
     89 H38         3.7780   -5.2830    1.0220 ho        1 MOL      0.413931
     90 H39         2.7060   -7.2270   -1.4410 hc        1 MOL      0.106340
     91 H40         4.0450   -6.8840   -0.2930 hc        1 MOL      0.106340
     92 H41         2.5530   -7.4710    0.3300 hc        1 MOL      0.106340
     93 N9          0.7990   -3.6310   -1.9750 n         1 MOL     -0.650317
     94 C29        -0.3080   -2.7440   -2.2750 c3        1 MOL      0.006758
     95 C30        -1.6220   -3.3220   -1.6690 c         1 MOL      0.580314
     96 O16        -1.9510   -4.4660   -1.9330 o         1 MOL     -0.541510
     97 C31        -0.5340   -2.4650   -3.8000 c3        1 MOL      0.229251
     98 C32         0.7510   -2.2560   -4.6120 c3        1 MOL      0.106767
     99 C33        -1.5550   -1.2810   -3.9570 c3        1 MOL     -0.418792
    100 C34         0.5640   -2.3090   -6.0970 c3        1 MOL     -0.111056
    101 H42         0.7460   -4.5670   -2.3530 hn        1 MOL      0.302642
    102 H43        -0.0610   -1.7670   -1.8490 h1        1 MOL      0.082091
    103 H44        -1.0210   -3.3510   -4.1850 hc        1 MOL     -0.028883
    104 H45         1.6320   -2.8620   -4.3800 hc        1 MOL     -0.016572
    105 H46         1.0600   -1.2230   -4.4250 hc        1 MOL     -0.016572
    106 H47        -2.4380   -1.4590   -3.3410 hc        1 MOL      0.099095
    107 H48        -1.1000   -0.3330   -3.6620 hc        1 MOL      0.099095
    108 H49        -1.9900   -1.2200   -4.9550 hc        1 MOL      0.099095
    109 H50         0.5350   -3.3710   -6.3390 hc        1 MOL      0.018874
    110 H51        -0.3070   -1.8170   -6.5230 hc        1 MOL      0.018874
    111 H52         1.4190   -1.9050   -6.6400 hc        1 MOL      0.018874
    112 N10        -2.2750   -2.5570   -0.7880 n         1 MOL     -0.296973
    113 C35        -3.5610   -2.9480   -0.0660 c3        1 MOL     -0.102599
    114 C36        -4.8810   -2.4560   -0.6770 c         1 MOL      0.352027
    115 O17        -4.8550   -1.6180   -1.6020 o         1 MOL     -0.365928
    116 C37        -3.4670   -2.6760    1.4230 c3        1 MOL      0.404931
    117 C38        -2.2890   -3.4490    1.9800 c3        1 MOL     -0.538003
    118 O18        -3.3000   -1.3690    1.5570 oh        1 MOL     -0.604388
    119 H53        -1.9820   -1.5980   -0.6290 hn        1 MOL      0.238909
    120 H54        -3.5580   -4.0400   -0.1120 h1        1 MOL      0.074845
    121 H55        -4.4000   -2.8770    1.9320 h1        1 MOL      0.015145
    122 H56        -2.4180   -1.0530    1.3350 ho        1 MOL      0.377205
    123 H57        -2.7700   -4.1820    2.6350 hc        1 MOL      0.139554
    124 H58        -1.6160   -3.9040    1.2630 hc        1 MOL      0.139554
    125 H59        -1.7920   -2.8020    2.7000 hc        1 MOL      0.139554
    126 N11        -6.0420   -2.8750   -0.2190 n         1 MOL     -0.273382
    127 C39        -7.2940   -2.3190   -0.7300 c3        1 MOL      0.031758
    128 C40        -7.3730   -0.8150   -0.3920 c         1 MOL      0.182732
    129 O19        -7.6530   -0.0110   -1.2880 o         1 MOL     -0.425400
    130 C41        -8.6420   -2.9450   -0.3310 c3        1 MOL      0.234766
    131 C42        -9.0310   -4.0350   -1.3540 c3        1 MOL     -0.454608
    132 O20        -8.5550   -3.5090    0.9810 oh        1 MOL     -0.629940
    133 H60        -6.1440   -3.5220    0.5460 hn        1 MOL      0.247791
    134 H61        -7.1810   -2.3530   -1.8170 h1        1 MOL      0.115361
    135 H62        -9.4040   -2.1740   -0.4170 h1        1 MOL      0.079463
    136 H63        -9.3490   -4.0480    1.0920 ho        1 MOL      0.416363
    137 H64        -8.8550   -3.6400   -2.3560 hc        1 MOL      0.132251
    138 H65        -8.5030   -4.9730   -1.1750 hc        1 MOL      0.132251
    139 H66       -10.1120   -4.1660   -1.2290 hc        1 MOL      0.132251
    140 N12        -6.9440   -0.3180    0.8080 n         1 MOL     -0.187030
    141 C43        -7.1710    1.0960    1.1610 c3        1 MOL      0.027518
    142 C44        -6.1050    2.0040    0.4670 c         1 MOL      0.296666
    143 O21        -6.4400    3.1270    0.1470 o         1 MOL     -0.463282
    144 C45        -7.1690    1.3120    2.6800 c3        1 MOL     -0.092618
    145 C46        -8.4660    0.7810    3.3260 c3        1 MOL      0.025419
    146 C47        -8.5640    1.0780    4.7860 c3        1 MOL     -0.179446
    147 C48        -7.5540    0.4720    5.7750 c3        1 MOL      0.082495
    148 N13        -7.9600    0.5640    7.2050 n4        1 MOL     -0.319138
    149 H67        -6.2940   -0.9050    1.3020 hn        1 MOL      0.233744
    150 H68        -8.1240    1.5240    0.8410 h1        1 MOL      0.136441
    151 H69        -7.2090    2.3490    3.0080 hc        1 MOL      0.049451
    152 H70        -6.3240    0.8180    3.1750 hc        1 MOL      0.049451
    153 H71        -8.5750   -0.2890    3.1250 hc        1 MOL      0.010481
    154 H72        -9.2620    1.3130    2.8000 hc        1 MOL      0.010481
    155 H73        -9.5750    0.9330    5.1660 hc        1 MOL      0.083346
    156 H74        -8.4210    2.1500    4.9060 hc        1 MOL      0.083346
    157 H75        -6.6220    1.0050    5.6280 hx        1 MOL      0.066774
    158 H76        -7.4220   -0.5660    5.4580 hx        1 MOL      0.066774
    159 H77        -8.7930    0.0250    7.3670 hn        1 MOL      0.284914
    160 H78        -7.2290    0.1530    7.7750 hn        1 MOL      0.284914
    161 H79        -8.1210    1.5200    7.4860 hn        1 MOL      0.284914
    162 N14        -4.8900    1.5020    0.1670 n         1 MOL     -0.031848
    163 C49        -3.9300    2.1310   -0.7010 c3        1 MOL     -0.084599
    164 C50        -4.5650    2.2220   -2.1460 c         1 MOL      0.323200
    165 O22        -4.8400    3.3430   -2.6230 o         1 MOL     -0.502082
    166 C51        -2.5900    1.4020   -0.6930 c3        1 MOL     -0.279952
    167 C52        -1.9420    1.6280    0.6880 c3        1 MOL      0.170167
    168 C53        -0.6010    0.9790    0.8420 c         1 MOL      0.660397
    169 O23        -0.5490   -0.2760    0.7890 o         1 MOL     -0.721442
    170 O24         0.4700    1.6280    0.9990 o         1 MOL     -0.721442
    171 H80        -4.6880    0.5950    0.5590 hn        1 MOL      0.098094
    172 H81        -3.8670    3.1460   -0.3020 h1        1 MOL      0.092527
    173 H82        -1.9080    1.8430   -1.4270 hc        1 MOL      0.085003
    174 H83        -2.7420    0.3470   -0.8990 hc        1 MOL      0.085003
    175 H84        -2.6100    1.3940    1.5170 hc        1 MOL     -0.053912
    176 H85        -1.9250    2.7220    0.7470 hc        1 MOL     -0.053912
    177 N15        -5.0030    1.0600   -2.6800 n         1 MOL      0.003863
    178 C54        -5.6940    1.0930   -3.9920 c3        1 MOL     -0.099564
    179 H86        -5.0710    0.6070   -4.7430 h1        1 MOL      0.054730
    180 H87        -6.6450    0.5680   -3.9160 h1        1 MOL      0.054730
    181 H88        -5.8720    2.1280   -4.2840 h1        1 MOL      0.054730
    182 H89        -4.7490    0.1440   -2.3280 hn        1 MOL      0.086433
    183 Ca1         1.9970   -0.6370    1.3290 Ca        1 MOL      1.741731
    184 O25         0.6490   -2.7160    2.0510 oh        1 MOL     -0.809503
    185 H90         0.1930   -2.5650    2.8830 ho        1 MOL      0.396683
    186 H91         0.4850   -3.6350    1.8540 ho        1 MOL      0.396683
    187 O26         0.8140   -0.7660    3.8400 oh        1 MOL     -0.809503
    188 H92         1.5330   -0.4840    4.4040 ho        1 MOL      0.396683
    189 H93         0.0750   -0.2260    4.0980 ho        1 MOL      0.396683
@<TRIPOS>BOND
     1    1    2 1   
     2    1    4 1   
     3    1    5 1   
     4    1    6 1   
     5    2    3 2   
     6    2    7 1   
     7    7    8 1   
     8    7   15 1   
     9    8    9 1   
    10    8   11 1   
    11    8   16 1   
    12    9   10 2   
    13    9   19 1   
    14   11   12 1   
    15   11   17 1   
    16   11   18 1   
    17   12   13 1   
    18   12   14 1   
    19   19   20 1   
    20   19   28 1   
    21   20   21 1   
    22   20   23 1   
    23   20   29 1   
    24   21   22 2   
    25   21   41 1   
    26   23   24 1   
    27   23   30 1   
    28   23   31 1   
    29   24   25 1   
    30   24   32 1   
    31   24   33 1   
    32   25   26 1   
    33   25   34 1   
    34   25   35 1   
    35   26   27 1   
    36   26   36 1   
    37   26   37 1   
    38   27   38 1   
    39   27   39 1   
    40   27   40 1   
    41   41   42 1   
    42   41   49 1   
    43   42   43 1   
    44   42   45 1   
    45   42   50 1   
    46   43   44 2   
    47   43   53 1   
    48   45   46 1   
    49   45   51 1   
    50   45   52 1   
    51   46   47 1   
    52   46   48 1   
    53   53   54 1   
    54   53   57 1   
    55   54   55 1   
    56   54   58 1   
    57   54   59 1   
    58   55   56 2   
    59   55   60 1   
    60   60   61 1   
    61   60   68 1   
    62   61   62 1   
    63   61   64 1   
    64   61   69 1   
    65   62   63 2   
    66   62   72 1   
    67   64   65 1   
    68   64   70 1   
    69   64   71 1   
    70   65   66 1   
    71   65   67 1   
    72   72   73 1   
    73   72   76 1   
    74   73   74 1   
    75   73   77 1   
    76   73   78 1   
    77   74   75 2   
    78   74   79 1   
    79   79   80 1   
    80   79   86 1   
    81   80   81 1   
    82   80   83 1   
    83   80   87 1   
    84   81   82 2   
    85   81   93 1   
    86   83   84 1   
    87   83   85 1   
    88   83   88 1   
    89   84   90 1   
    90   84   91 1   
    91   84   92 1   
    92   85   89 1   
    93   93   94 1   
    94   93  101 1   
    95   94   95 1   
    96   94   97 1   
    97   94  102 1   
    98   95   96 2   
    99   95  112 1   
   100   97   98 1   
   101   97   99 1   
   102   97  103 1   
   103   98  100 1   
   104   98  104 1   
   105   98  105 1   
   106   99  106 1   
   107   99  107 1   
   108   99  108 1   
   109  100  109 1   
   110  100  110 1   
   111  100  111 1   
   112  112  113 1   
   113  112  119 1   
   114  113  114 1   
   115  113  116 1   
   116  113  120 1   
   117  114  115 2   
   118  114  126 1   
   119  116  117 1   
   120  116  118 1   
   121  116  121 1   
   122  117  123 1   
   123  117  124 1   
   124  117  125 1   
   125  118  122 1   
   126  126  127 1   
   127  126  133 1   
   128  127  128 1   
   129  127  130 1   
   130  127  134 1   
   131  128  129 2   
   132  128  140 1   
   133  130  131 1   
   134  130  132 1   
   135  130  135 1   
   136  131  137 1   
   137  131  138 1   
   138  131  139 1   
   139  132  136 1   
   140  140  141 1   
   141  140  149 1   
   142  141  142 1   
   143  141  144 1   
   144  141  150 1   
   145  142  143 2   
   146  142  162 1   
   147  144  145 1   
   148  144  151 1   
   149  144  152 1   
   150  145  146 1   
   151  145  153 1   
   152  145  154 1   
   153  146  147 1   
   154  146  155 1   
   155  146  156 1   
   156  147  148 1   
   157  147  157 1   
   158  147  158 1   
   159  148  159 1   
   160  148  160 1   
   161  148  161 1   
   162  162  163 1   
   163  162  171 1   
   164  163  164 1   
   165  163  166 1   
   166  163  172 1   
   167  164  165 2   
   168  164  177 1   
   169  166  167 1   
   170  166  173 1   
   171  166  174 1   
   172  167  168 1   
   173  167  175 1   
   174  167  176 1   
   175  168  169 1   
   176  168  170 1   
   177  177  178 1   
   178  177  182 1   
   179  178  179 1   
   180  178  180 1   
   181  178  181 1   
   182  184  185 1   
   183  184  186 1   
   184  187  188 1   
   185  187  189 1   
@<TRIPOS>SUBSTRUCTURE
     1 MOL         1 TEMP              0 ****  ****    0 ROOT
