@<TRIPOS>MOLECULE
MOL
  189   185     1     0     0
SMALL
resp


@<TRIPOS>ATOM
      1 C1         -0.1740    2.5860    5.3090 c3        1 MOL     -0.384173
      2 C2         -0.5210    2.2100    3.8610 c         1 MOL      0.699226
      3 O1          0.3310    2.3270    2.9690 o         1 MOL     -0.586061
      4 H1          0.8270    2.2270    5.5470 hc        1 MOL      0.096440
      5 H2         -0.2070    3.6700    5.4200 hc        1 MOL      0.096440
      6 H3         -0.8950    2.1290    5.9860 hc        1 MOL      0.096440
      7 N1         -1.7870    1.8110    3.5890 n         1 MOL     -0.424625
      8 C3         -2.4620    1.6160    2.3640 c3        1 MOL      0.010357
      9 C4         -3.0070    2.9210    1.8400 c         1 MOL      0.385562
     10 O2         -4.0270    3.3420    2.3540 o         1 MOL     -0.557397
     11 C5         -3.5540    0.5590    2.5490 c3        1 MOL     -0.103525
     12 C6         -4.1370    0.0740    1.1960 c         1 MOL      0.806494
     13 O3         -3.5210    0.2770    0.1490 o         1 MOL     -0.740773
     14 O4         -5.2230   -0.5570    1.2990 o         1 MOL     -0.740773
     15 H4         -2.4270    1.7040    4.3600 hn        1 MOL      0.256697
     16 H5         -1.7860    1.2260    1.6090 h1        1 MOL      0.056069
     17 H6         -4.4060    0.9430    3.1160 hc        1 MOL      0.024284
     18 H7         -3.1970   -0.2570    3.1810 hc        1 MOL      0.024284
     19 N2         -2.4950    3.4840    0.7620 n         1 MOL     -0.017734
     20 C7         -2.9010    4.9030    0.3720 c3        1 MOL     -0.157023
     21 C8         -3.6970    4.8670   -0.9190 c         1 MOL      0.478869
     22 O5         -4.2090    5.9110   -1.4410 o         1 MOL     -0.567335
     23 C9         -1.7570    5.9150    0.2050 c3        1 MOL      0.016967
     24 C10        -0.9960    6.1370    1.5310 c3        1 MOL      0.016510
     25 C11        -1.7180    6.6560    2.7300 c3        1 MOL     -0.070883
     26 C12        -2.7840    7.8360    2.5260 c3        1 MOL      0.077469
     27 N3         -3.4510    8.3500    3.7190 n4        1 MOL     -0.416268
     28 H8         -1.7260    2.9740    0.3440 hn        1 MOL      0.213343
     29 H9         -3.5490    5.3430    1.1380 h1        1 MOL      0.090814
     30 H10        -2.1940    6.8620   -0.1280 hc        1 MOL      0.017246
     31 H11        -1.1030    5.5050   -0.5560 hc        1 MOL      0.017246
     32 H12        -0.2830    6.9430    1.3580 hc        1 MOL      0.021585
     33 H13        -0.5110    5.2010    1.8060 hc        1 MOL      0.021585
     34 H14        -0.9700    7.0090    3.4370 hc        1 MOL      0.029588
     35 H15        -2.1640    5.7510    3.1420 hc        1 MOL      0.029588
     36 H16        -3.5730    7.3990    1.9110 hx        1 MOL      0.076743
     37 H17        -2.2650    8.6640    2.0430 hx        1 MOL      0.076743
     38 H18        -2.8100    8.7760    4.3740 hn        1 MOL      0.344087
     39 H19        -4.1470    9.0510    3.5120 hn        1 MOL      0.344087
     40 H20        -3.9440    7.6080    4.2010 hn        1 MOL      0.344087
     41 N4         -3.9630    3.6560   -1.4670 n         1 MOL     -0.227941
     42 C13        -4.8940    3.3700   -2.5590 c3        1 MOL     -0.062889
     43 C14        -6.0940    2.4920   -2.1620 c         1 MOL      0.383648
     44 O6         -6.9480    2.1480   -3.0200 o         1 MOL     -0.513148
     45 C15        -4.2150    2.8160   -3.7920 c3        1 MOL     -0.127603
     46 C16        -3.1670    1.7630   -3.4270 c         1 MOL      0.742816
     47 O7         -2.0190    1.8630   -3.9320 o         1 MOL     -0.705571
     48 O8         -3.5180    0.8850   -2.5800 o         1 MOL     -0.705571
     49 H21        -3.3850    2.8810   -1.1850 hn        1 MOL      0.170345
     50 H22        -5.2660    4.3180   -2.9480 h1        1 MOL      0.129552
     51 H23        -3.6920    3.6010   -4.3360 hc        1 MOL      0.037551
     52 H24        -4.9480    2.4600   -4.5190 hc        1 MOL      0.037551
     53 N5         -6.1490    2.1060   -0.9140 n         1 MOL     -0.290856
     54 C17        -7.2470    1.3200   -0.2550 c3        1 MOL     -0.032809
     55 C18        -7.4740   -0.0670   -0.8720 c         1 MOL      0.467366
     56 O9         -8.6710   -0.4320   -0.8340 o         1 MOL     -0.570394
     57 H25        -5.3400    2.2960   -0.3440 hn        1 MOL      0.179469
     58 H26        -8.1700    1.8970   -0.2830 h1        1 MOL      0.077670
     59 H27        -7.0590    1.1580    0.8000 h1        1 MOL      0.077670
     60 N6         -6.4620   -0.6130   -1.5560 n         1 MOL     -0.154773
     61 C19        -6.6290   -1.9710   -2.1510 c3        1 MOL     -0.195042
     62 C20        -6.5880   -3.1760   -1.2180 c         1 MOL      0.477807
     63 O10        -6.9700   -4.2780   -1.6040 o         1 MOL     -0.563088
     64 C21        -5.6640   -2.1580   -3.3510 c3        1 MOL     -0.167412
     65 C22        -4.2060   -2.1090   -2.9970 c         1 MOL      0.748183
     66 O11        -3.3510   -1.7070   -3.8230 o         1 MOL     -0.693199
     67 O12        -3.7770   -2.5370   -1.9110 o         1 MOL     -0.693199
     68 H28        -5.5830   -0.1260   -1.6150 hn        1 MOL      0.251806
     69 H29        -7.6100   -2.0170   -2.6140 h1        1 MOL      0.133068
     70 H30        -5.8110   -1.3050   -4.0240 hc        1 MOL      0.073265
     71 H31        -5.8030   -3.0090   -4.0160 hc        1 MOL      0.073265
     72 N7         -6.1630   -2.8610    0.0090 n         1 MOL     -0.195797
     73 C23        -6.2090   -3.7420    1.1950 c3        1 MOL     -0.224746
     74 C24        -4.8670   -4.4100    1.5010 c         1 MOL      0.609267
     75 O13        -4.9300   -5.2360    2.4090 o         1 MOL     -0.602504
     76 H32        -5.7740   -1.9390    0.1320 hn        1 MOL      0.260103
     77 H33        -7.0030   -4.4570    0.9930 h1        1 MOL      0.113121
     78 H34        -6.5230   -3.1230    2.0330 h1        1 MOL      0.113121
     79 N8         -3.7950   -4.0690    0.8470 n         1 MOL     -0.276315
     80 C25        -2.5160   -4.7180    1.1460 c3        1 MOL     -0.131087
     81 C26        -1.4890   -3.6470    1.0690 c         1 MOL      0.686777
     82 O14        -1.7410   -2.6380    0.4120 o         1 MOL     -0.686683
     83 C27        -2.0850   -5.7860    0.0620 c3        1 MOL      0.289723
     84 C28        -2.8710   -7.0800    0.2650 c3        1 MOL     -0.378203
     85 O15        -2.2730   -5.2890   -1.2240 oh        1 MOL     -0.583075
     86 H35        -3.8730   -3.3170    0.1790 hn        1 MOL      0.209671
     87 H36        -2.4880   -5.1090    2.1620 h1        1 MOL      0.085716
     88 H37        -1.0550   -6.0920    0.2500 h1        1 MOL      0.056616
     89 H38        -3.2170   -5.3530   -1.4220 ho        1 MOL      0.433636
     90 H39        -2.6380   -7.8490   -0.4800 hc        1 MOL      0.102951
     91 H40        -2.6380   -7.5730    1.2150 hc        1 MOL      0.102951
     92 H41        -3.9390   -6.9030    0.1770 hc        1 MOL      0.102951
     93 N9         -0.3300   -3.8210    1.6680 n         1 MOL     -0.537442
     94 C29         0.6950   -2.8580    1.8990 c3        1 MOL      0.046685
     95 C30         1.9880   -3.4830    1.3240 c         1 MOL      0.407642
     96 O16         2.3380   -4.6190    1.6020 o         1 MOL     -0.541412
     97 C31         0.9450   -2.5240    3.3620 c3        1 MOL      0.221911
     98 C32        -0.2810   -2.2440    4.2120 c3        1 MOL      0.141493
     99 C33         1.9400   -1.3400    3.4840 c3        1 MOL     -0.669928
    100 C34         0.0330   -2.3470    5.7060 c3        1 MOL     -0.031970
    101 H42        -0.2410   -4.7030    2.1540 hn        1 MOL      0.270323
    102 H43         0.4840   -1.9580    1.3300 h1        1 MOL      0.080705
    103 H44         1.5110   -3.3550    3.7860 hc        1 MOL     -0.021781
    104 H45        -1.0720   -2.9940    4.2200 hc        1 MOL     -0.029434
    105 H46        -0.5860   -1.2050    4.0810 hc        1 MOL     -0.029434
    106 H47         1.3990   -0.4440    3.1920 hc        1 MOL      0.145642
    107 H48         2.2400   -1.0620    4.4980 hc        1 MOL      0.145642
    108 H49         2.8420   -1.4390    2.8890 hc        1 MOL      0.145642
    109 H50         0.8480   -1.6970    6.0180 hc        1 MOL     -0.002453
    110 H51        -0.8500   -2.1280    6.3240 hc        1 MOL     -0.002453
    111 H52         0.3140   -3.3390    6.0490 hc        1 MOL     -0.002453
    112 N10         2.6860   -2.6560    0.5480 n         1 MOL     -0.087166
    113 C35         3.9350   -2.9750   -0.1740 c3        1 MOL     -0.077258
    114 C36         5.2180   -2.4490    0.5320 c         1 MOL      0.394615
    115 O17         5.0180   -1.5810    1.3690 o         1 MOL     -0.368123
    116 C37         3.9030   -2.4400   -1.6140 c3        1 MOL      0.165124
    117 C38         2.7260   -3.0780   -2.4070 c3        1 MOL     -0.353704
    118 O18         3.7160   -1.0950   -1.6860 oh        1 MOL     -0.537179
    119 H53         2.1440   -1.8320    0.3180 hn        1 MOL      0.310341
    120 H54         4.0880   -4.0570   -0.1730 h1        1 MOL      0.051163
    121 H55         4.8270   -2.7120   -2.1180 h1        1 MOL      0.037934
    122 H56         2.7720   -0.9240   -1.6310 ho        1 MOL      0.358785
    123 H57         2.8930   -4.1360   -2.5810 hc        1 MOL      0.093518
    124 H58         1.7900   -2.7750   -1.9360 hc        1 MOL      0.093518
    125 H59         2.7180   -2.7300   -3.4460 hc        1 MOL      0.093518
    126 N11         6.4160   -2.8730    0.1330 n         1 MOL     -0.282326
    127 C39         7.7510   -2.3410    0.6630 c3        1 MOL     -0.165391
    128 C40         7.9540   -0.8400    0.5100 c         1 MOL      0.236438
    129 O19         8.3300   -0.1830    1.4740 o         1 MOL     -0.432196
    130 C41         9.0300   -2.9250   -0.0440 c3        1 MOL      0.330378
    131 C42         9.4200   -4.3600    0.3270 c3        1 MOL     -0.422285
    132 O20         8.7740   -2.8990   -1.4500 oh        1 MOL     -0.633696
    133 H60         6.4420   -3.6570   -0.5070 hn        1 MOL      0.289603
    134 H61         7.7470   -2.5810    1.7260 h1        1 MOL      0.165816
    135 H62         9.9860   -2.4280    0.1150 h1        1 MOL      0.069092
    136 H63         9.6070   -2.6680   -1.8710 ho        1 MOL      0.400674
    137 H64         9.4300   -4.4690    1.4080 hc        1 MOL      0.119139
    138 H65         8.6330   -5.0330   -0.0060 hc        1 MOL      0.119139
    139 H66        10.4180   -4.5350   -0.0720 hc        1 MOL      0.119139
    140 N12         7.5720   -0.2230   -0.6300 n         1 MOL     -0.200769
    141 C43         7.6400    1.1910   -0.9680 c3        1 MOL     -0.059550
    142 C44         6.5980    1.9820   -0.1650 c         1 MOL      0.280002
    143 O21         6.9770    2.9270    0.5520 o         1 MOL     -0.471329
    144 C45         7.5030    1.2760   -2.5020 c3        1 MOL     -0.231942
    145 C46         7.8270    2.7190   -2.9780 c3        1 MOL     -0.086196
    146 C47         7.6480    2.8180   -4.4980 c3        1 MOL      0.008755
    147 C48         8.0220    4.1650   -4.9580 c3        1 MOL     -0.047085
    148 N13         9.4410    4.2030   -5.3440 n4        1 MOL     -0.288538
    149 H67         7.2130   -0.8470   -1.3250 hn        1 MOL      0.238210
    150 H68         8.5550    1.6770   -0.6150 h1        1 MOL      0.134205
    151 H69         6.5040    0.9790   -2.8050 hc        1 MOL      0.088675
    152 H70         8.1490    0.5050   -2.9170 hc        1 MOL      0.088675
    153 H71         8.7850    2.9970   -2.5550 hc        1 MOL      0.071912
    154 H72         7.2340    3.4870   -2.4750 hc        1 MOL      0.071912
    155 H73         6.6230    2.5920   -4.8020 hc        1 MOL      0.055205
    156 H74         8.2640    2.0310   -4.9370 hc        1 MOL      0.055205
    157 H75         7.8870    4.8460   -4.1150 hx        1 MOL      0.110438
    158 H76         7.4670    4.5610   -5.8010 hx        1 MOL      0.110438
    159 H77         9.6150    5.0400   -5.8650 hn        1 MOL      0.266402
    160 H78         9.9600    4.2480   -4.4750 hn        1 MOL      0.266402
    161 H79         9.7590    3.4040   -5.8740 hn        1 MOL      0.266402
    162 N14         5.3680    1.5090   -0.1280 n         1 MOL     -0.237310
    163 C49         4.2920    2.0220    0.8140 c3        1 MOL     -0.013566
    164 C50         4.6760    1.9310    2.3210 c         1 MOL      0.408558
    165 O22         4.4300    2.8370    3.0290 o         1 MOL     -0.517068
    166 C51         2.9540    1.1610    0.7290 c3        1 MOL      0.076590
    167 C52         2.0700    1.5100   -0.5010 c3        1 MOL     -0.218120
    168 C53         0.7870    0.6950   -0.5900 c         1 MOL      0.734787
    169 O23         0.8620   -0.5890   -0.8020 o         1 MOL     -0.751560
    170 O24        -0.3200    1.2660   -0.6050 o         1 MOL     -0.751560
    171 H80         5.1630    0.6750   -0.6610 hn        1 MOL      0.218801
    172 H81         4.0210    3.0750    0.7150 h1        1 MOL      0.092014
    173 H82         2.2830    1.3880    1.5650 hc        1 MOL      0.028872
    174 H83         3.0840    0.0820    0.7790 hc        1 MOL      0.028872
    175 H84         2.6750    1.4110   -1.3940 hc        1 MOL      0.041979
    176 H85         1.7740    2.5620   -0.4360 hc        1 MOL      0.041979
    177 N15         5.4370    0.8630    2.7390 n         1 MOL     -0.045604
    178 C54         5.8020    0.7330    4.1640 c3        1 MOL     -0.320830
    179 H86         6.8880    0.7330    4.2610 h1        1 MOL      0.106462
    180 H87         5.3890    1.5720    4.7240 h1        1 MOL      0.106462
    181 H88         5.4010   -0.2010    4.5590 h1        1 MOL      0.106462
    182 H89         5.6250    0.0630    2.1490 hn        1 MOL      0.180178
    183 Ca1        -1.8220   -0.7640   -1.6510 Ca        1 MOL      1.767680
    184 O25        -0.4350   -0.2500   -3.8890 oh        1 MOL     -0.809676
    185 H90         0.4920   -0.3360   -4.0860 ho        1 MOL      0.383575
    186 H91        -0.6850    0.6010   -4.2760 ho        1 MOL      0.383575
    187 O26        -0.8960   -3.3290   -2.2150 oh        1 MOL     -0.809676
    188 H92        -0.3060   -3.7320   -2.8470 ho        1 MOL      0.383575
    189 H93        -1.3570   -4.0670   -1.8070 ho        1 MOL      0.383575
@<TRIPOS>BOND
     1    1    2 1   
     2    1    4 1   
     3    1    5 1   
     4    1    6 1   
     5    2    3 2   
     6    2    7 1   
     7    7    8 1   
     8    7   15 1   
     9    8    9 1   
    10    8   11 1   
    11    8   16 1   
    12    9   10 2   
    13    9   19 1   
    14   11   12 1   
    15   11   17 1   
    16   11   18 1   
    17   12   13 1   
    18   12   14 1   
    19   19   20 1   
    20   19   28 1   
    21   20   21 1   
    22   20   23 1   
    23   20   29 1   
    24   21   22 2   
    25   21   41 1   
    26   23   24 1   
    27   23   30 1   
    28   23   31 1   
    29   24   25 1   
    30   24   32 1   
    31   24   33 1   
    32   25   26 1   
    33   25   34 1   
    34   25   35 1   
    35   26   27 1   
    36   26   36 1   
    37   26   37 1   
    38   27   38 1   
    39   27   39 1   
    40   27   40 1   
    41   41   42 1   
    42   41   49 1   
    43   42   43 1   
    44   42   45 1   
    45   42   50 1   
    46   43   44 2   
    47   43   53 1   
    48   45   46 1   
    49   45   51 1   
    50   45   52 1   
    51   46   47 1   
    52   46   48 1   
    53   53   54 1   
    54   53   57 1   
    55   54   55 1   
    56   54   58 1   
    57   54   59 1   
    58   55   56 2   
    59   55   60 1   
    60   60   61 1   
    61   60   68 1   
    62   61   62 1   
    63   61   64 1   
    64   61   69 1   
    65   62   63 2   
    66   62   72 1   
    67   64   65 1   
    68   64   70 1   
    69   64   71 1   
    70   65   66 1   
    71   65   67 1   
    72   72   73 1   
    73   72   76 1   
    74   73   74 1   
    75   73   77 1   
    76   73   78 1   
    77   74   75 2   
    78   74   79 1   
    79   79   80 1   
    80   79   86 1   
    81   80   81 1   
    82   80   83 1   
    83   80   87 1   
    84   81   82 2   
    85   81   93 1   
    86   83   84 1   
    87   83   85 1   
    88   83   88 1   
    89   84   90 1   
    90   84   91 1   
    91   84   92 1   
    92   85   89 1   
    93   93   94 1   
    94   93  101 1   
    95   94   95 1   
    96   94   97 1   
    97   94  102 1   
    98   95   96 2   
    99   95  112 1   
   100   97   98 1   
   101   97   99 1   
   102   97  103 1   
   103   98  100 1   
   104   98  104 1   
   105   98  105 1   
   106   99  106 1   
   107   99  107 1   
   108   99  108 1   
   109  100  109 1   
   110  100  110 1   
   111  100  111 1   
   112  112  113 1   
   113  112  119 1   
   114  113  114 1   
   115  113  116 1   
   116  113  120 1   
   117  114  115 2   
   118  114  126 1   
   119  116  117 1   
   120  116  118 1   
   121  116  121 1   
   122  117  123 1   
   123  117  124 1   
   124  117  125 1   
   125  118  122 1   
   126  126  127 1   
   127  126  133 1   
   128  127  128 1   
   129  127  130 1   
   130  127  134 1   
   131  128  129 2   
   132  128  140 1   
   133  130  131 1   
   134  130  132 1   
   135  130  135 1   
   136  131  137 1   
   137  131  138 1   
   138  131  139 1   
   139  132  136 1   
   140  140  141 1   
   141  140  149 1   
   142  141  142 1   
   143  141  144 1   
   144  141  150 1   
   145  142  143 2   
   146  142  162 1   
   147  144  145 1   
   148  144  151 1   
   149  144  152 1   
   150  145  146 1   
   151  145  153 1   
   152  145  154 1   
   153  146  147 1   
   154  146  155 1   
   155  146  156 1   
   156  147  148 1   
   157  147  157 1   
   158  147  158 1   
   159  148  159 1   
   160  148  160 1   
   161  148  161 1   
   162  162  163 1   
   163  162  171 1   
   164  163  164 1   
   165  163  166 1   
   166  163  172 1   
   167  164  165 2   
   168  164  177 1   
   169  166  167 1   
   170  166  173 1   
   171  166  174 1   
   172  167  168 1   
   173  167  175 1   
   174  167  176 1   
   175  168  169 1   
   176  168  170 1   
   177  177  178 1   
   178  177  182 1   
   179  178  179 1   
   180  178  180 1   
   181  178  181 1   
   182  184  185 1   
   183  184  186 1   
   184  187  188 1   
   185  187  189 1   
@<TRIPOS>SUBSTRUCTURE
     1 MOL         1 TEMP              0 ****  ****    0 ROOT
