@<TRIPOS>MOLECULE
MOL
  189   185     1     0     0
SMALL
resp


@<TRIPOS>ATOM
      1 C1         -0.2130    1.4890    6.5690 c3        1 MOL     -0.229515
      2 C2         -0.4410    1.4600    5.0230 c         1 MOL      0.731401
      3 O1          0.4890    1.6300    4.2210 o         1 MOL     -0.633545
      4 H1         -0.8370    2.2640    7.0130 hc        1 MOL      0.057006
      5 H2         -0.4790    0.5210    6.9940 hc        1 MOL      0.057006
      6 H3          0.8350    1.7030    6.7790 hc        1 MOL      0.057006
      7 N1         -1.7000    1.2940    4.6280 n         1 MOL     -0.559768
      8 C3         -2.2380    1.3030    3.2780 c3        1 MOL      0.089083
      9 C4         -2.4320    2.7830    2.8770 c         1 MOL      0.459455
     10 O2         -3.2490    3.5150    3.4490 o         1 MOL     -0.551118
     11 C5         -3.6170    0.5810    3.2340 c3        1 MOL     -0.133810
     12 C6         -4.1810    0.4570    1.7860 c         1 MOL      0.803628
     13 O3         -3.4280    0.6810    0.8020 o         1 MOL     -0.720361
     14 O4         -5.3730    0.1390    1.6810 o         1 MOL     -0.720361
     15 H4         -2.4530    1.0940    5.2740 hn        1 MOL      0.315193
     16 H5         -1.5400    0.8680    2.5750 h1        1 MOL     -0.027562
     17 H6         -4.2700    1.1070    3.9400 hc        1 MOL      0.023285
     18 H7         -3.4060   -0.4010    3.6390 hc        1 MOL      0.023285
     19 N2         -1.5480    3.2430    1.9910 n         1 MOL     -0.036931
     20 C7         -1.4520    4.6990    1.6760 c3        1 MOL     -0.229852
     21 C8         -2.6270    5.1580    0.8540 c         1 MOL      0.603513
     22 O5         -2.8480    6.3740    0.7840 o         1 MOL     -0.565505
     23 C9         -0.0820    4.9990    0.9020 c3        1 MOL      0.000929
     24 C10        -0.0770    4.5850   -0.5910 c3        1 MOL      0.153137
     25 C11         1.3900    4.6610   -1.0410 c3        1 MOL     -0.274786
     26 C12         1.5320    3.6880   -2.2370 c3        1 MOL      0.178223
     27 N3          0.9410    4.2530   -3.5100 n4        1 MOL     -0.512915
     28 H8         -0.9660    2.5140    1.6050 hn        1 MOL      0.108043
     29 H9         -1.4870    5.1730    2.6620 h1        1 MOL      0.129291
     30 H10         0.6610    4.4210    1.4580 hc        1 MOL      0.031104
     31 H11         0.0900    6.0670    1.0430 hc        1 MOL      0.031104
     32 H12        -0.6840    5.3190   -1.1110 hc        1 MOL     -0.011729
     33 H13        -0.4870    3.5790   -0.6920 hc        1 MOL     -0.011729
     34 H14         2.0510    4.2790   -0.2660 hc        1 MOL      0.075245
     35 H15         1.6260    5.7010   -1.2730 hc        1 MOL      0.075245
     36 H16         1.1210    2.7020   -1.9870 hx        1 MOL      0.021674
     37 H17         2.6000    3.6010   -2.4030 hx        1 MOL      0.021674
     38 H18         1.2430    3.8590   -4.3910 hn        1 MOL      0.345437
     39 H19        -0.0390    4.0200   -3.5790 hn        1 MOL      0.345437
     40 H20         1.0590    5.2520   -3.5080 hn        1 MOL      0.345437
     41 N4         -3.3930    4.2770    0.1440 n         1 MOL     -0.466673
     42 C13        -4.2650    4.6520   -1.0140 c3        1 MOL      0.159387
     43 C14        -5.5490    3.7390   -1.1210 c         1 MOL      0.413534
     44 O6         -6.3360    3.8650   -2.0740 o         1 MOL     -0.515212
     45 C15        -3.4970    4.5190   -2.2930 c3        1 MOL     -0.236967
     46 C16        -2.5480    3.3960   -2.5380 c         1 MOL      1.072421
     47 O7         -2.5930    2.3490   -1.8120 o         1 MOL     -0.841717
     48 O8         -1.7730    3.4930   -3.5770 o         1 MOL     -0.841717
     49 H21        -2.8470    3.4300    0.1410 hn        1 MOL      0.132902
     50 H22        -4.5900    5.6920   -0.9680 h1        1 MOL      0.103418
     51 H23        -2.9760    5.4730   -2.3930 hc        1 MOL      0.034773
     52 H24        -4.1950    4.4050   -3.1190 hc        1 MOL      0.034773
     53 N5         -5.7860    2.9620   -0.0560 n         1 MOL     -0.242106
     54 C17        -7.1330    2.4410    0.3590 c3        1 MOL     -0.333698
     55 C18        -7.6890    1.1670   -0.2510 c         1 MOL      0.538515
     56 O9         -8.9320    0.9730   -0.1600 o         1 MOL     -0.573594
     57 H25        -5.0430    2.9340    0.6340 hn        1 MOL      0.232484
     58 H26        -7.7950    3.2810    0.1650 h1        1 MOL      0.162550
     59 H27        -7.2650    2.2500    1.4260 h1        1 MOL      0.162550
     60 N6         -6.8250    0.4740   -0.9830 n         1 MOL     -0.241877
     61 C19        -7.1870   -0.7350   -1.7690 c3        1 MOL     -0.072951
     62 C20        -7.2340   -1.9910   -0.9620 c         1 MOL      0.335505
     63 O10        -7.6280   -3.1010   -1.4970 o         1 MOL     -0.519728
     64 C21        -6.1620   -0.9120   -2.8770 c3        1 MOL     -0.144559
     65 C22        -4.6720   -0.9300   -2.4880 c         1 MOL      0.706710
     66 O11        -4.3130   -1.6290   -1.5310 o         1 MOL     -0.707380
     67 O12        -3.9130   -0.2730   -3.2200 o         1 MOL     -0.707380
     68 H28        -5.8990    0.8610   -0.9910 hn        1 MOL      0.265335
     69 H29        -8.1520   -0.5660   -2.2380 h1        1 MOL      0.125560
     70 H30        -6.2640   -0.0850   -3.5780 hc        1 MOL      0.057676
     71 H31        -6.3630   -1.8540   -3.3920 hc        1 MOL      0.057676
     72 N7         -6.5160   -2.0300    0.1910 n         1 MOL     -0.085246
     73 C23        -6.5400   -3.2340    1.0490 c3        1 MOL     -0.086295
     74 C24        -5.4420   -4.2780    0.8350 c         1 MOL      0.575556
     75 O13        -5.5420   -5.4450    1.1170 o         1 MOL     -0.555614
     76 H32        -6.1240   -1.2110    0.6460 hn        1 MOL      0.213073
     77 H33        -7.5420   -3.6610    1.1000 h1        1 MOL      0.048634
     78 H34        -6.3080   -2.8510    2.0420 h1        1 MOL      0.048634
     79 N8         -4.2640   -3.7690    0.4030 n         1 MOL     -0.254632
     80 C25        -3.0720   -4.5130    0.0040 c3        1 MOL     -0.346313
     81 C26        -1.8070   -3.7550    0.2640 c         1 MOL      0.859039
     82 O14        -1.8090   -2.5180   -0.0480 o         1 MOL     -0.799647
     83 C27        -3.0420   -4.9700   -1.4840 c3        1 MOL      0.371275
     84 C28        -3.8160   -6.2970   -1.5940 c3        1 MOL     -0.299865
     85 O15        -3.6930   -4.0400   -2.3930 oh        1 MOL     -0.640564
     86 H35        -4.2830   -2.7620    0.3620 hn        1 MOL      0.208701
     87 H36        -2.9940   -5.3990    0.6320 h1        1 MOL      0.131263
     88 H37        -2.0230   -5.1240   -1.8190 h1        1 MOL     -0.015625
     89 H38        -3.8410   -3.2360   -1.8830 ho        1 MOL      0.471549
     90 H39        -4.9010   -6.2680   -1.4580 hc        1 MOL      0.083551
     91 H40        -3.6670   -6.8600   -2.5150 hc        1 MOL      0.083551
     92 H41        -3.4740   -7.0220   -0.8550 hc        1 MOL      0.083551
     93 N9         -0.7230   -4.3620    0.7620 n         1 MOL     -0.650483
     94 C29         0.5480   -3.6850    1.2180 c3        1 MOL      0.216232
     95 C30         1.6960   -3.9560    0.2820 c         1 MOL      0.375525
     96 O16         2.1780   -5.1070    0.1870 o         1 MOL     -0.562128
     97 C31         0.8130   -4.0160    2.6600 c3        1 MOL      0.035016
     98 C32        -0.2330   -3.6140    3.6400 c3        1 MOL     -0.009214
     99 C33         2.1370   -3.6140    3.2710 c3        1 MOL     -0.327490
    100 C34        -0.5060   -2.1280    3.8590 c3        1 MOL     -0.292742
    101 H42        -0.8490   -5.2980    1.0950 hn        1 MOL      0.332283
    102 H43         0.4610   -2.6040    1.1770 h1        1 MOL      0.074971
    103 H44         0.7310   -5.1070    2.6280 hc        1 MOL      0.019878
    104 H45        -0.0770   -4.1130    4.6050 hc        1 MOL      0.019428
    105 H46        -1.1790   -4.0280    3.2870 hc        1 MOL      0.019428
    106 H47         2.1590   -3.7840    4.3420 hc        1 MOL      0.085656
    107 H48         2.9240   -4.2750    2.9080 hc        1 MOL      0.085656
    108 H49         2.4850   -2.6040    3.0150 hc        1 MOL      0.085656
    109 H50         0.3300   -1.5940    4.3020 hc        1 MOL      0.092609
    110 H51        -0.8160   -1.6210    2.9460 hc        1 MOL      0.092609
    111 H52        -1.2130   -1.9630    4.6760 hc        1 MOL      0.092609
    112 N10         2.1920   -2.9850   -0.3810 n         1 MOL      0.022454
    113 C35         3.2670   -3.1460   -1.4120 c3        1 MOL     -0.250349
    114 C36         4.6530   -3.0210   -0.7840 c         1 MOL      0.541574
    115 O17         4.7330   -2.5250    0.3560 o         1 MOL     -0.396372
    116 C37         3.0770   -2.0330   -2.4560 c3        1 MOL      0.333861
    117 C38         1.8200   -2.2030   -3.4160 c3        1 MOL     -0.402128
    118 O18         2.8000   -0.8630   -1.7350 oh        1 MOL     -0.600568
    119 H53         1.9180   -2.0190   -0.2390 hn        1 MOL      0.074353
    120 H54         3.1270   -4.1050   -1.9130 h1        1 MOL      0.125241
    121 H55         3.9440   -1.8920   -3.1100 h1        1 MOL      0.006199
    122 H56         1.8510   -0.8570   -1.5970 ho        1 MOL      0.313691
    123 H57         0.9670   -2.4730   -2.8010 hc        1 MOL      0.116162
    124 H58         1.7230   -1.3450   -4.0910 hc        1 MOL      0.116162
    125 H59         2.0430   -3.0260   -4.0940 hc        1 MOL      0.116162
    126 N11         5.7960   -3.4520   -1.4340 n         1 MOL     -0.510945
    127 C39         7.1250   -2.9130   -0.9010 c3        1 MOL     -0.009161
    128 C40         7.2700   -1.4160   -0.5240 c         1 MOL      0.289212
    129 O19         7.7460   -1.2060    0.5680 o         1 MOL     -0.490143
    130 C41         8.2860   -3.2840   -1.8360 c3        1 MOL      0.310280
    131 C42         8.5260   -4.7900   -2.0990 c3        1 MOL     -0.463515
    132 O20         7.9740   -2.6800   -3.0180 oh        1 MOL     -0.583557
    133 H60         5.6670   -3.9500   -2.2940 hn        1 MOL      0.327241
    134 H61         7.3070   -3.4390    0.0390 h1        1 MOL      0.121009
    135 H62         9.1710   -2.8320   -1.3890 h1        1 MOL      0.041264
    136 H63         8.5830   -1.9500   -3.1640 ho        1 MOL      0.371903
    137 H64         8.6160   -5.4200   -1.2120 hc        1 MOL      0.137835
    138 H65         7.7010   -5.0790   -2.7550 hc        1 MOL      0.137835
    139 H66         9.5030   -5.0010   -2.5400 hc        1 MOL      0.137835
    140 N12         6.8420   -0.4280   -1.2550 n         1 MOL     -0.128650
    141 C43         7.0670    0.9540   -0.8770 c3        1 MOL     -0.059862
    142 C44         6.1670    1.3500    0.3880 c         1 MOL      0.388452
    143 O21         6.5930    2.1320    1.2260 o         1 MOL     -0.506062
    144 C45         6.8250    1.8720   -2.1050 c3        1 MOL     -0.111525
    145 C46         6.7640    3.3760   -1.7970 c3        1 MOL     -0.108238
    146 C47         7.9990    4.0850   -1.2370 c3        1 MOL     -0.007743
    147 C48         7.8380    5.6230   -1.0080 c3        1 MOL      0.050358
    148 N13         9.1440    6.3060   -0.9090 n4        1 MOL     -0.415909
    149 H67         6.5380   -0.6870   -2.1850 hn        1 MOL      0.203585
    150 H68         8.1140    1.1410   -0.6230 h1        1 MOL      0.129562
    151 H69         5.8320    1.5990   -2.4640 hc        1 MOL      0.053008
    152 H70         7.6560    1.7180   -2.7980 hc        1 MOL      0.053008
    153 H71         6.0570    3.5930   -1.0050 hc        1 MOL      0.049387
    154 H72         6.4560    3.9650   -2.6640 hc        1 MOL      0.049387
    155 H73         8.8430    3.9350   -1.9030 hc        1 MOL      0.027500
    156 H74         8.3440    3.6040   -0.3160 hc        1 MOL      0.027500
    157 H75         7.1020    5.8230   -0.2320 hx        1 MOL      0.093205
    158 H76         7.3170    6.0600   -1.8570 hx        1 MOL      0.093205
    159 H77         9.6580    5.9200   -0.1250 hn        1 MOL      0.350192
    160 H78         9.6830    6.0640   -1.7320 hn        1 MOL      0.350192
    161 H79         9.0010    7.2930   -0.7660 hn        1 MOL      0.350192
    162 N14         4.9980    0.7770    0.5560 n         1 MOL     -0.277202
    163 C49         4.2360    0.7490    1.8700 c3        1 MOL     -0.045894
    164 C50         4.9340   -0.0110    3.0140 c         1 MOL      0.515183
    165 O22         5.0020    0.5260    4.0970 o         1 MOL     -0.556406
    166 C51         2.8530    0.2060    1.6470 c3        1 MOL      0.135465
    167 C52         1.8970    1.1750    1.0340 c3        1 MOL      0.044886
    168 C53         0.6370    0.5260    0.3810 c         1 MOL      0.718067
    169 O23         0.7120   -0.4500   -0.3960 o         1 MOL     -0.664078
    170 O24        -0.4190    1.1750    0.5140 o         1 MOL     -0.664078
    171 H80         4.7090    0.1060   -0.1430 hn        1 MOL      0.248454
    172 H81         4.0070    1.7430    2.2760 h1        1 MOL      0.080852
    173 H82         2.4310   -0.1330    2.5990 hc        1 MOL     -0.040670
    174 H83         2.9500   -0.6520    0.9820 hc        1 MOL     -0.040670
    175 H84         2.3990    1.7330    0.2310 hc        1 MOL     -0.000884
    176 H85         1.6340    1.8580    1.8310 hc        1 MOL     -0.000884
    177 N15         5.6090   -1.1040    2.7230 n         1 MOL     -0.097175
    178 C54         6.2760   -1.9410    3.7820 c3        1 MOL     -0.363127
    179 H86         6.5070   -1.3160    4.6450 h1        1 MOL      0.134143
    180 H87         5.6060   -2.7450    4.0860 h1        1 MOL      0.134143
    181 H88         7.1970   -2.3650    3.3840 h1        1 MOL      0.134143
    182 H89         5.5410   -1.4710    1.7830 hn        1 MOL      0.151892
    183 Ca1        -1.8340   -0.1370   -1.1670 Ca        1 MOL      1.783696
    184 O25        -0.6210    0.7530   -3.4390 oh        1 MOL     -0.841341
    185 H90        -0.4200    0.4670   -4.3310 ho        1 MOL      0.398977
    186 H91        -0.9620    1.6380   -3.5410 ho        1 MOL      0.398977
    187 O26        -1.6990   -2.0390   -3.1580 oh        1 MOL     -0.841341
    188 H92        -2.5810   -2.3800   -3.3020 ho        1 MOL      0.398977
    189 H93        -1.1960   -2.3600   -3.9080 ho        1 MOL      0.398977
@<TRIPOS>BOND
     1    1    2 1   
     2    1    4 1   
     3    1    5 1   
     4    1    6 1   
     5    2    3 2   
     6    2    7 1   
     7    7    8 1   
     8    7   15 1   
     9    8    9 1   
    10    8   11 1   
    11    8   16 1   
    12    9   10 2   
    13    9   19 1   
    14   11   12 1   
    15   11   17 1   
    16   11   18 1   
    17   12   13 1   
    18   12   14 1   
    19   19   20 1   
    20   19   28 1   
    21   20   21 1   
    22   20   23 1   
    23   20   29 1   
    24   21   22 2   
    25   21   41 1   
    26   23   24 1   
    27   23   30 1   
    28   23   31 1   
    29   24   25 1   
    30   24   32 1   
    31   24   33 1   
    32   25   26 1   
    33   25   34 1   
    34   25   35 1   
    35   26   27 1   
    36   26   36 1   
    37   26   37 1   
    38   27   38 1   
    39   27   39 1   
    40   27   40 1   
    41   41   42 1   
    42   41   49 1   
    43   42   43 1   
    44   42   45 1   
    45   42   50 1   
    46   43   44 2   
    47   43   53 1   
    48   45   46 1   
    49   45   51 1   
    50   45   52 1   
    51   46   47 1   
    52   46   48 1   
    53   53   54 1   
    54   53   57 1   
    55   54   55 1   
    56   54   58 1   
    57   54   59 1   
    58   55   56 2   
    59   55   60 1   
    60   60   61 1   
    61   60   68 1   
    62   61   62 1   
    63   61   64 1   
    64   61   69 1   
    65   62   63 2   
    66   62   72 1   
    67   64   65 1   
    68   64   70 1   
    69   64   71 1   
    70   65   66 1   
    71   65   67 1   
    72   72   73 1   
    73   72   76 1   
    74   73   74 1   
    75   73   77 1   
    76   73   78 1   
    77   74   75 2   
    78   74   79 1   
    79   79   80 1   
    80   79   86 1   
    81   80   81 1   
    82   80   83 1   
    83   80   87 1   
    84   81   82 2   
    85   81   93 1   
    86   83   84 1   
    87   83   85 1   
    88   83   88 1   
    89   84   90 1   
    90   84   91 1   
    91   84   92 1   
    92   85   89 1   
    93   93   94 1   
    94   93  101 1   
    95   94   95 1   
    96   94   97 1   
    97   94  102 1   
    98   95   96 2   
    99   95  112 1   
   100   97   98 1   
   101   97   99 1   
   102   97  103 1   
   103   98  100 1   
   104   98  104 1   
   105   98  105 1   
   106   99  106 1   
   107   99  107 1   
   108   99  108 1   
   109  100  109 1   
   110  100  110 1   
   111  100  111 1   
   112  112  113 1   
   113  112  119 1   
   114  113  114 1   
   115  113  116 1   
   116  113  120 1   
   117  114  115 2   
   118  114  126 1   
   119  116  117 1   
   120  116  118 1   
   121  116  121 1   
   122  117  123 1   
   123  117  124 1   
   124  117  125 1   
   125  118  122 1   
   126  126  127 1   
   127  126  133 1   
   128  127  128 1   
   129  127  130 1   
   130  127  134 1   
   131  128  129 2   
   132  128  140 1   
   133  130  131 1   
   134  130  132 1   
   135  130  135 1   
   136  131  137 1   
   137  131  138 1   
   138  131  139 1   
   139  132  136 1   
   140  140  141 1   
   141  140  149 1   
   142  141  142 1   
   143  141  144 1   
   144  141  150 1   
   145  142  143 2   
   146  142  162 1   
   147  144  145 1   
   148  144  151 1   
   149  144  152 1   
   150  145  146 1   
   151  145  153 1   
   152  145  154 1   
   153  146  147 1   
   154  146  155 1   
   155  146  156 1   
   156  147  148 1   
   157  147  157 1   
   158  147  158 1   
   159  148  159 1   
   160  148  160 1   
   161  148  161 1   
   162  162  163 1   
   163  162  171 1   
   164  163  164 1   
   165  163  166 1   
   166  163  172 1   
   167  164  165 2   
   168  164  177 1   
   169  166  167 1   
   170  166  173 1   
   171  166  174 1   
   172  167  168 1   
   173  167  175 1   
   174  167  176 1   
   175  168  169 1   
   176  168  170 1   
   177  177  178 1   
   178  177  182 1   
   179  178  179 1   
   180  178  180 1   
   181  178  181 1   
   182  184  185 1   
   183  184  186 1   
   184  187  188 1   
   185  187  189 1   
@<TRIPOS>SUBSTRUCTURE
     1 MOL         1 TEMP              0 ****  ****    0 ROOT
