@<TRIPOS>MOLECULE
MOL
  183   181     1     0     0
SMALL
resp


@<TRIPOS>ATOM
      1 C1         -0.3290    1.2720    6.2460 c3        1 MOL     -0.330920
      2 C2         -0.7900    1.3090    4.7450 c         1 MOL      0.676894
      3 O1          0.0290    1.7140    3.9120 o         1 MOL     -0.563288
      4 H1          0.5060    0.5780    6.3520 hc        1 MOL      0.080150
      5 H2         -0.0140    2.2680    6.5550 hc        1 MOL      0.080150
      6 H3         -1.1570    0.9410    6.8730 hc        1 MOL      0.080150
      7 N1         -2.0610    0.9320    4.3910 n         1 MOL     -0.570666
      8 C3         -2.6400    1.1850    3.1160 c3        1 MOL      0.205777
      9 C4         -3.2050    2.5650    2.8440 c         1 MOL      0.423527
     10 O2         -4.1210    3.1140    3.4950 o         1 MOL     -0.574607
     11 C5         -3.7610    0.1400    2.9580 c3        1 MOL     -0.441587
     12 C6         -4.5870    0.1780    1.6890 c         1 MOL      0.897300
     13 O3         -5.6760   -0.4450    1.6670 o         1 MOL     -0.666381
     14 O4         -4.0840    0.7260    0.6590 o         1 MOL     -0.666381
     15 H4         -2.6390    0.4890    5.0870 hn        1 MOL      0.316701
     16 H5         -1.8260    0.9690    2.4180 h1        1 MOL      0.095213
     17 H6         -4.4570    0.2340    3.7890 hc        1 MOL      0.074144
     18 H7         -3.2290   -0.8140    2.9350 hc        1 MOL      0.074144
     19 N2         -2.6960    3.1740    1.8020 n         1 MOL     -0.185877
     20 C7         -2.6980    4.5780    1.5340 c3        1 MOL     -0.148704
     21 C8         -3.7680    4.9290    0.5130 c         1 MOL      0.709333
     22 O5         -4.2980    6.0250    0.6180 o         1 MOL     -0.612269
     23 C9         -1.2770    5.1290    1.1320 c3        1 MOL      0.258838
     24 C10        -0.2220    4.7530    2.1370 c3        1 MOL      0.031249
     25 C11        -1.3640    6.6650    1.1070 c3        1 MOL     -0.133363
     26 C12         1.1610    5.3060    1.8260 c3        1 MOL     -0.085128
     27 H8         -2.0680    2.5830    1.2680 hn        1 MOL      0.184971
     28 H9         -3.0170    5.1210    2.4160 h1        1 MOL      0.065121
     29 H10        -0.9780    4.8040    0.1270 hc        1 MOL     -0.016342
     30 H11        -0.1610    3.6670    2.1230 hc        1 MOL     -0.012860
     31 H12        -0.5160    5.0690    3.1440 hc        1 MOL     -0.012860
     32 H13        -0.5440    7.1220    0.5570 hc        1 MOL      0.008049
     33 H14        -2.3050    7.0710    0.7270 hc        1 MOL      0.008049
     34 H15        -1.3040    7.0510    2.1240 hc        1 MOL      0.008049
     35 H16         1.1580    6.3980    1.8700 hc        1 MOL      0.005332
     36 H17         1.8870    4.9050    2.5230 hc        1 MOL      0.005332
     37 H18         1.5140    4.9510    0.8610 hc        1 MOL      0.005332
     38 N3         -4.1450    3.9420   -0.3230 n         1 MOL     -0.542789
     39 C13        -5.0040    4.1620   -1.5020 c3        1 MOL      0.006165
     40 C14        -6.2660    3.2930   -1.4870 c         1 MOL      0.370996
     41 O6         -7.0030    3.1510   -2.4630 o         1 MOL     -0.465237
     42 C15        -4.1870    3.9850   -2.7850 c3        1 MOL     -0.158398
     43 C16        -3.5120    2.6860   -3.0360 c         1 MOL      0.850189
     44 O7         -3.0140    2.5610   -4.1760 o         1 MOL     -0.719679
     45 O8         -3.3860    1.7660   -2.2010 o         1 MOL     -0.719679
     46 H19        -3.7570    3.0160   -0.1890 hn        1 MOL      0.260393
     47 H20        -5.2830    5.2210   -1.4640 h1        1 MOL      0.097556
     48 H21        -3.5160    4.8310   -2.8780 hc        1 MOL      0.031796
     49 H22        -4.8990    3.9930   -3.6070 hc        1 MOL      0.031796
     50 N4         -6.5380    2.6380   -0.3390 n         1 MOL     -0.209964
     51 C17        -7.7590    1.8390    0.0770 c3        1 MOL     -0.210597
     52 C18        -7.9060    0.6680   -0.8840 c         1 MOL      0.501557
     53 O9         -8.8210    0.6990   -1.7050 o         1 MOL     -0.580398
     54 H23        -5.8420    2.7700    0.3760 hn        1 MOL      0.227688
     55 H24        -8.6920    2.4050    0.0660 h1        1 MOL      0.100240
     56 H25        -7.6040    1.4940    1.0900 h1        1 MOL      0.100240
     57 N5         -7.0720   -0.3830   -0.8650 n         1 MOL     -0.041307
     58 C19        -7.4150   -1.6380   -1.5690 c3        1 MOL      0.018349
     59 C20        -7.5080   -2.8820   -0.5700 c         1 MOL      0.412022
     60 O10        -8.0940   -3.8680   -0.9780 o         1 MOL     -0.540916
     61 C21        -6.4170   -1.7800   -2.7620 c3        1 MOL     -0.033232
     62 C22        -4.9190   -1.7020   -2.3300 c         1 MOL      0.661886
     63 O11        -4.0790   -1.1560   -3.1270 o         1 MOL     -0.745616
     64 O12        -4.5630   -1.9840   -1.1650 o         1 MOL     -0.745616
     65 H26        -6.3620   -0.4080   -0.1450 hn        1 MOL     -0.103066
     66 H27        -8.4550   -1.6060   -1.8800 h1        1 MOL      0.044991
     67 H28        -6.5450   -0.9740   -3.4830 hc        1 MOL      0.018507
     68 H29        -6.6670   -2.6880   -3.3060 hc        1 MOL      0.018507
     69 N6         -6.8980   -2.8770    0.6200 n         1 MOL     -0.226328
     70 C23        -6.7390   -4.1300    1.4240 c3        1 MOL     -0.068888
     71 C24        -5.2860   -4.7060    1.5930 c         1 MOL      0.628308
     72 O13        -5.1000   -5.7490    2.2800 o         1 MOL     -0.620401
     73 H30        -6.4910   -2.0200    0.9770 hn        1 MOL      0.230969
     74 H31        -7.3690   -4.9350    1.0380 h1        1 MOL      0.046696
     75 H32        -7.0220   -3.8060    2.4340 h1        1 MOL      0.046696
     76 N7         -4.2310   -3.9680    1.1820 n         1 MOL     -0.385740
     77 C25        -2.8780   -4.4940    1.2230 c3        1 MOL     -0.062507
     78 C26        -1.7840   -3.3900    1.2120 c         1 MOL      0.609478
     79 O14        -2.0640   -2.2110    0.8470 o         1 MOL     -0.652979
     80 C27        -2.6320   -5.4080   -0.0020 c3        1 MOL     -0.012155
     81 C28        -3.0450   -4.8530   -1.4020 c3        1 MOL     -0.195560
     82 C29        -1.9270   -4.0070   -2.0430 c         1 MOL      0.556804
     83 N8         -1.0050   -4.6950   -2.7440 n         1 MOL     -0.732280
     84 O15        -1.9180   -2.8200   -1.9830 o         1 MOL     -0.465354
     85 H33        -4.3470   -3.1630    0.5680 hn        1 MOL      0.283983
     86 H34        -2.7420   -5.0800    2.1300 h1        1 MOL      0.084075
     87 H35        -3.0870   -6.3780    0.1770 hc        1 MOL      0.010120
     88 H36        -1.5670   -5.6600    0.0060 hc        1 MOL      0.010120
     89 H37        -3.9640   -4.2620   -1.3970 hc        1 MOL      0.075647
     90 H38        -3.2750   -5.7050   -2.0490 hc        1 MOL      0.075647
     91 H39        -1.1590   -5.6740   -2.9600 hn        1 MOL      0.335776
     92 H40        -0.2400   -4.2220   -3.2010 hn        1 MOL      0.335776
     93 N9         -0.5600   -3.7450    1.5100 n         1 MOL     -0.302298
     94 C30         0.5190   -2.7950    1.7180 c3        1 MOL     -0.022818
     95 C31         1.7110   -3.2260    0.8500 c         1 MOL      0.342122
     96 O16         2.2980   -4.2500    1.0260 o         1 MOL     -0.548939
     97 C32         1.0120   -2.8460    3.1840 c3        1 MOL      0.437211
     98 C33         1.9380   -1.6750    3.4450 c3        1 MOL     -0.466713
     99 C34        -0.1190   -2.7330    4.2470 c3        1 MOL     -0.466713
    100 H41        -0.3970   -4.6980    1.8210 hn        1 MOL      0.236774
    101 H42         0.2070   -1.8110    1.3630 h1        1 MOL      0.120054
    102 H43         1.4620   -3.8180    3.4130 hc        1 MOL     -0.061707
    103 H44         2.3290   -1.7250    4.4630 hc        1 MOL      0.097060
    104 H45         2.6810   -1.5510    2.6560 hc        1 MOL      0.097060
    105 H46         1.2910   -0.7990    3.5180 hc        1 MOL      0.097060
    106 H47         0.4770   -2.7370    5.1630 hc        1 MOL      0.097060
    107 H48        -0.7160   -1.8200    4.2130 hc        1 MOL      0.097060
    108 H49        -0.7760   -3.5930    4.1170 hc        1 MOL      0.097060
    109 N10         2.1180   -2.3430   -0.0550 n         1 MOL     -0.036680
    110 C35         3.2320   -2.6140   -0.9970 c3        1 MOL      0.058716
    111 C36         4.5890   -2.1580   -0.4430 c         1 MOL      0.336305
    112 O17         4.5480   -1.1860    0.3610 o         1 MOL     -0.248904
    113 C37         2.9030   -1.8880   -2.3470 c3        1 MOL     -0.424504
    114 C38         1.6640   -2.4630   -2.9820 c         1 MOL      0.694412
    115 N11         0.5200   -1.8090   -2.8240 n         1 MOL     -0.654226
    116 O18         1.6330   -3.5180   -3.6280 o         1 MOL     -0.640875
    117 H50         1.6360   -1.4480   -0.0500 hn        1 MOL      0.003839
    118 H51         3.3100   -3.7050   -1.1160 h1        1 MOL      0.065672
    119 H52         3.7380   -1.8440   -3.0500 hc        1 MOL      0.155643
    120 H53         2.6220   -0.8770   -2.0320 hc        1 MOL      0.155643
    121 H54         0.4530   -0.9740   -2.2560 hn        1 MOL      0.321417
    122 H55        -0.3300   -2.2530   -3.1520 hn        1 MOL      0.321417
    123 N12         5.7480   -2.5410   -1.0070 n         1 MOL     -0.487657
    124 C39         7.0490   -1.9520   -0.5480 c3        1 MOL      0.165591
    125 C40         7.1720   -0.3930   -0.5020 c         1 MOL      0.641340
    126 O19         7.7160    0.1510    0.4470 o         1 MOL     -0.497267
    127 C41         8.2960   -2.5340   -1.2960 c3        1 MOL     -0.059668
    128 C42         9.5570   -1.8490   -0.6960 ca        1 MOL      0.042971
    129 C43        10.0160   -2.0960    0.5970 ca        1 MOL     -0.250972
    130 C44        10.4050   -1.0170   -1.5560 ca        1 MOL     -0.250972
    131 C45        11.2180   -1.5100    1.1330 ca        1 MOL     -0.121723
    132 C46        11.5450   -0.3860   -1.0280 ca        1 MOL     -0.121723
    133 C47        12.0030   -0.6270    0.3380 ca        1 MOL      0.204993
    134 O20        13.1190   -0.0870    0.8920 oh        1 MOL     -0.477073
    135 H56         5.7020   -3.3650   -1.5990 hn        1 MOL      0.302519
    136 H57         7.1610   -2.3730    0.4540 h1        1 MOL      0.045450
    137 H58         8.1070   -2.4240   -2.3610 hc        1 MOL      0.033029
    138 H59         8.4090   -3.6120   -1.2150 hc        1 MOL      0.033029
    139 H60         9.4060   -2.7800    1.1690 ha        1 MOL      0.141766
    140 H61        10.2470   -1.1150   -2.6210 ha        1 MOL      0.141766
    141 H62        11.5260   -1.8320    2.1190 ha        1 MOL      0.111914
    142 H63        12.2240    0.2000   -1.6300 ha        1 MOL      0.111914
    143 H64        13.7060    0.4010    0.3030 ho        1 MOL      0.372974
    144 N13         6.5630    0.2320   -1.4690 n         1 MOL     -0.570695
    145 C48         6.3200    1.6720   -1.5120 c3        1 MOL      0.253991
    146 C49         5.4520    2.3500   -0.3820 c         1 MOL      0.116234
    147 O21         5.6900    3.4540   -0.0150 o         1 MOL     -0.452174
    148 C50         5.6840    2.0640   -2.8970 c3        1 MOL      0.023934
    149 C51         5.2260    3.5060   -3.2200 c3        1 MOL     -0.238942
    150 C52         4.4200    3.6100   -4.4610 c         1 MOL      0.720979
    151 O22         3.1520    3.6220   -4.4340 o         1 MOL     -0.736413
    152 O23         5.0540    3.7660   -5.5620 o         1 MOL     -0.736413
    153 H65         6.3200   -0.3550   -2.2570 hn        1 MOL      0.255133
    154 H66         7.2940    2.1790   -1.4430 h1        1 MOL      0.043089
    155 H67         4.8130    1.4130   -2.9740 hc        1 MOL     -0.018946
    156 H68         6.4490    1.8320   -3.6360 hc        1 MOL     -0.018946
    157 H69         6.1480    4.0750   -3.2970 hc        1 MOL      0.043621
    158 H70         4.7110    3.8870   -2.3390 hc        1 MOL      0.043621
    159 N14         4.4940    1.5680    0.1930 n         1 MOL      0.014765
    160 C53         3.6810    1.9650    1.3520 c3        1 MOL      0.067668
    161 C54         4.3570    1.6450    2.6530 c         1 MOL      0.394820
    162 O24         4.2960    2.3580    3.6470 o         1 MOL     -0.547380
    163 C55         2.2770    1.3080    1.2690 c3        1 MOL      0.101101
    164 C56         1.3980    1.6990    0.1050 c3        1 MOL     -0.096841
    165 C57         0.0360    0.9000   -0.0700 c         1 MOL      0.733297
    166 O25        -1.0410    1.3710    0.3310 o         1 MOL     -0.737045
    167 O26        -0.0090   -0.2190   -0.6990 o         1 MOL     -0.737045
    168 H71         4.3200    0.6310   -0.1350 hn        1 MOL      0.110090
    169 H72         3.5660    3.0550    1.3650 h1        1 MOL      0.067847
    170 H73         1.7370    1.4850    2.2010 hc        1 MOL      0.019844
    171 H74         2.4960    0.2440    1.1640 hc        1 MOL      0.019844
    172 H75         2.0230    1.7240   -0.7950 hc        1 MOL      0.031107
    173 H76         1.0760    2.7320    0.2290 hc        1 MOL      0.031107
    174 N15         5.2030    0.5830    2.6460 n         1 MOL     -0.006946
    175 C58         6.0950    0.1490    3.7520 c3        1 MOL     -0.295245
    176 H77         6.7410   -0.6570    3.4030 h1        1 MOL      0.102269
    177 H78         6.7080    0.9900    4.0760 h1        1 MOL      0.102269
    178 H79         5.4930   -0.2060    4.5880 h1        1 MOL      0.102269
    179 H80         5.1730    0.0250    1.8100 hn        1 MOL     -0.072028
    180 Ca1        -2.5500   -0.4270   -1.1590 Ca        1 MOL      1.772974
    181 O27        -1.4010    0.3730   -3.7240 oh        1 MOL     -0.864260
    182 H81        -2.0540    1.0780   -3.7900 ho        1 MOL      0.400590
    183 H82        -1.3260    0.0410   -4.6130 ho        1 MOL      0.400590
@<TRIPOS>BOND
     1    1    2 1   
     2    1    4 1   
     3    1    5 1   
     4    1    6 1   
     5    2    3 2   
     6    2    7 1   
     7    7    8 1   
     8    7   15 1   
     9    8    9 1   
    10    8   11 1   
    11    8   16 1   
    12    9   10 2   
    13    9   19 1   
    14   11   12 1   
    15   11   17 1   
    16   11   18 1   
    17   12   13 1   
    18   12   14 1   
    19   19   20 1   
    20   19   27 1   
    21   20   21 1   
    22   20   23 1   
    23   20   28 1   
    24   21   22 2   
    25   21   38 1   
    26   23   24 1   
    27   23   25 1   
    28   23   29 1   
    29   24   26 1   
    30   24   30 1   
    31   24   31 1   
    32   25   32 1   
    33   25   33 1   
    34   25   34 1   
    35   26   35 1   
    36   26   36 1   
    37   26   37 1   
    38   38   39 1   
    39   38   46 1   
    40   39   40 1   
    41   39   42 1   
    42   39   47 1   
    43   40   41 2   
    44   40   50 1   
    45   42   43 1   
    46   42   48 1   
    47   42   49 1   
    48   43   44 1   
    49   43   45 1   
    50   50   51 1   
    51   50   54 1   
    52   51   52 1   
    53   51   55 1   
    54   51   56 1   
    55   52   53 2   
    56   52   57 1   
    57   57   58 1   
    58   57   65 1   
    59   58   59 1   
    60   58   61 1   
    61   58   66 1   
    62   59   60 2   
    63   59   69 1   
    64   61   62 1   
    65   61   67 1   
    66   61   68 1   
    67   62   63 1   
    68   62   64 1   
    69   69   70 1   
    70   69   73 1   
    71   70   71 1   
    72   70   74 1   
    73   70   75 1   
    74   71   72 2   
    75   71   76 1   
    76   76   77 1   
    77   76   85 1   
    78   77   78 1   
    79   77   80 1   
    80   77   86 1   
    81   78   79 2   
    82   78   93 1   
    83   80   81 1   
    84   80   87 1   
    85   80   88 1   
    86   81   82 1   
    87   81   89 1   
    88   81   90 1   
    89   82   83 1   
    90   82   84 2   
    91   83   91 1   
    92   83   92 1   
    93   93   94 1   
    94   93  100 1   
    95   94   95 1   
    96   94   97 1   
    97   94  101 1   
    98   95   96 2   
    99   95  109 1   
   100   97   98 1   
   101   97   99 1   
   102   97  102 1   
   103   98  103 1   
   104   98  104 1   
   105   98  105 1   
   106   99  106 1   
   107   99  107 1   
   108   99  108 1   
   109  109  110 1   
   110  109  117 1   
   111  110  111 1   
   112  110  113 1   
   113  110  118 1   
   114  111  112 2   
   115  111  123 1   
   116  113  114 1   
   117  113  119 1   
   118  113  120 1   
   119  114  115 1   
   120  114  116 2   
   121  115  121 1   
   122  115  122 1   
   123  123  124 1   
   124  123  135 1   
   125  124  125 1   
   126  124  127 1   
   127  124  136 1   
   128  125  126 2   
   129  125  144 1   
   130  127  128 1   
   131  127  137 1   
   132  127  138 1   
   133  128  129 ar  
   134  128  130 ar  
   135  129  131 ar  
   136  129  139 1   
   137  130  132 ar  
   138  130  140 1   
   139  131  133 ar  
   140  131  141 1   
   141  132  133 ar  
   142  132  142 1   
   143  133  134 1   
   144  134  143 1   
   145  144  145 1   
   146  144  153 1   
   147  145  146 1   
   148  145  148 1   
   149  145  154 1   
   150  146  147 2   
   151  146  159 1   
   152  148  149 1   
   153  148  155 1   
   154  148  156 1   
   155  149  150 1   
   156  149  157 1   
   157  149  158 1   
   158  150  151 1   
   159  150  152 1   
   160  159  160 1   
   161  159  168 1   
   162  160  161 1   
   163  160  163 1   
   164  160  169 1   
   165  161  162 2   
   166  161  174 1   
   167  163  164 1   
   168  163  170 1   
   169  163  171 1   
   170  164  165 1   
   171  164  172 1   
   172  164  173 1   
   173  165  166 1   
   174  165  167 1   
   175  174  175 1   
   176  174  179 1   
   177  175  176 1   
   178  175  177 1   
   179  175  178 1   
   180  181  182 1   
   181  181  183 1   
@<TRIPOS>SUBSTRUCTURE
     1 MOL         1 TEMP              0 ****  ****    0 ROOT
