@<TRIPOS>MOLECULE
MOL
  179   176     1     0     0
SMALL
resp


@<TRIPOS>ATOM
      1 C1          1.8060    1.8340    6.7010 c3        1 MOL     -0.271686
      2 C2          1.5080    1.7560    5.2510 c         1 MOL      0.739486
      3 O1          2.2850    1.2680    4.4460 o         1 MOL     -0.586759
      4 H1          1.6930    2.8640    7.0410 hc        1 MOL      0.068709
      5 H2          1.1150    1.1930    7.2500 hc        1 MOL      0.068709
      6 H3          2.8290    1.5030    6.8810 hc        1 MOL      0.068709
      7 N1          0.3550    2.3050    4.8470 n         1 MOL     -0.665779
      8 C3         -0.1910    2.2740    3.4490 c3        1 MOL      0.226578
      9 C4         -0.0000    3.6000    2.7680 c         1 MOL      0.564831
     10 O2         -0.4310    4.6840    3.2220 o         1 MOL     -0.557272
     11 C5         -1.5940    1.7460    3.4100 c3        1 MOL     -0.199577
     12 C6         -2.0510    1.3090    1.9710 c         1 MOL      0.953481
     13 O3         -1.8520    2.1150    1.0380 o         1 MOL     -0.867086
     14 O4         -2.5290    0.2050    1.6830 o         1 MOL     -0.867086
     15 H4         -0.2400    2.5680    5.6210 hn        1 MOL      0.325920
     16 H5          0.3230    1.5290    2.8370 h1        1 MOL      0.020722
     17 H6         -2.2890    2.4650    3.8350 hc        1 MOL      0.030172
     18 H7         -1.6150    0.8530    4.0220 hc        1 MOL      0.030172
     19 N2          0.6880    3.6370    1.6060 n         1 MOL     -0.418693
     20 C7          0.9020    4.8050    0.7550 c3        1 MOL     -0.033160
     21 C8         -0.2960    5.2740   -0.0510 c         1 MOL      0.549072
     22 O5         -0.4200    6.4710   -0.1710 o         1 MOL     -0.591821
     23 C9          2.1560    4.5520   -0.1760 c3        1 MOL      0.053005
     24 C10         2.5260    5.6720   -1.0730 c3        1 MOL     -0.203192
     25 C11         3.8760    5.4730   -1.7250 c3        1 MOL      0.109909
     26 C12         4.2370    6.8200   -2.4450 c3        1 MOL      0.006042
     27 N3          5.6270    6.8960   -2.8410 n4        1 MOL     -0.326957
     28 H8          1.1190    2.7930    1.2630 hn        1 MOL      0.246187
     29 H9          1.2140    5.7100    1.2860 h1        1 MOL      0.099457
     30 H10         1.9870    3.6060   -0.6800 hc        1 MOL      0.051204
     31 H11         3.0240    4.4480    0.4770 hc        1 MOL      0.051204
     32 H12         2.4000    6.5950   -0.5030 hc        1 MOL      0.047603
     33 H13         1.8320    5.7070   -1.9120 hc        1 MOL      0.047603
     34 H14         3.8680    4.6740   -2.4650 hc        1 MOL     -0.003658
     35 H15         4.6370    5.1030   -1.0440 hc        1 MOL     -0.003658
     36 H16         4.1180    7.5950   -1.6930 hx        1 MOL      0.093035
     37 H17         3.4950    7.0000   -3.2380 hx        1 MOL      0.093035
     38 H18         5.9010    6.1490   -3.4590 hn        1 MOL      0.324195
     39 H19         5.8530    7.8290   -3.1540 hn        1 MOL      0.324195
     40 H20         6.2140    6.7570   -2.0300 hn        1 MOL      0.324195
     41 N4         -1.1750    4.4650   -0.5950 n         1 MOL     -0.315585
     42 C13        -2.3070    4.8680   -1.4970 c3        1 MOL      0.000485
     43 C14        -3.6750    4.6830   -0.8630 c         1 MOL      0.468891
     44 O6         -4.7400    5.1130   -1.4030 o         1 MOL     -0.550843
     45 C15        -2.0870    4.2870   -2.9200 c3        1 MOL     -0.126871
     46 C16        -2.1830    2.7720   -3.0860 c         1 MOL      0.789924
     47 O7         -2.1710    2.2380   -4.2270 o         1 MOL     -0.726020
     48 O8         -2.3300    2.0290   -2.0890 o         1 MOL     -0.726020
     49 H21        -1.0420    3.4760   -0.4520 hn        1 MOL      0.309666
     50 H22        -2.1660    5.9250   -1.6950 h1        1 MOL      0.099723
     51 H23        -1.1200    4.5900   -3.3270 hc        1 MOL      0.027173
     52 H24        -2.8090    4.6970   -3.6200 hc        1 MOL      0.027173
     53 N5         -3.7090    3.9840    0.2900 n         1 MOL     -0.239264
     54 C17        -4.9020    3.8170    1.1540 c3        1 MOL     -0.178182
     55 C18        -5.8360    2.7470    0.6720 c         1 MOL      0.514815
     56 O9         -6.9410    2.5360    1.2720 o         1 MOL     -0.574200
     57 H25        -2.9230    3.4460    0.5910 hn        1 MOL      0.201367
     58 H26        -5.4890    4.7150    1.3790 h1        1 MOL      0.116258
     59 H27        -4.5600    3.3680    2.0900 h1        1 MOL      0.116258
     60 N6         -5.4300    2.0840   -0.4370 n         1 MOL     -0.267870
     61 C19        -6.2800    1.0970   -1.1460 c3        1 MOL      0.065726
     62 C20        -6.7360   -0.0940   -0.2370 c         1 MOL      0.491124
     63 O10        -7.7500   -0.6890   -0.5860 o         1 MOL     -0.556845
     64 C21        -5.6730    0.5000   -2.4060 c3        1 MOL     -0.391128
     65 C22        -4.5260   -0.3930   -2.1720 c         1 MOL      0.673988
     66 N7         -4.0360   -1.0180   -3.2360 n         1 MOL     -0.635113
     67 O11        -4.0330   -0.5500   -1.0190 o         1 MOL     -0.651096
     68 H28        -4.5090    2.2450   -0.8180 hn        1 MOL      0.197684
     69 H29        -7.2260    1.5940   -1.3740 h1        1 MOL      0.100677
     70 H30        -5.2790    1.2940   -3.0480 hc        1 MOL      0.137869
     71 H31        -6.5140   -0.0450   -2.8170 hc        1 MOL      0.137869
     72 H32        -4.4320   -0.7450   -4.1160 hn        1 MOL      0.321748
     73 H33        -3.2300   -1.6270   -3.2530 hn        1 MOL      0.321748
     74 N8         -6.2290   -0.3910    0.9540 n         1 MOL     -0.193025
     75 C23        -6.6280   -1.4890    1.8060 c3        1 MOL     -0.226785
     76 C24        -5.5890   -2.6210    2.0170 c         1 MOL      0.498966
     77 O12        -5.8710   -3.6220    2.6950 o         1 MOL     -0.554985
     78 H34        -5.3420    0.0330    1.2270 hn        1 MOL      0.236088
     79 H35        -7.4760   -1.9850    1.3400 h1        1 MOL      0.129246
     80 H36        -6.8770   -1.1060    2.8010 h1        1 MOL      0.129246
     81 N9         -4.4480   -2.5680    1.3300 n         1 MOL     -0.238297
     82 C25        -3.4610   -3.6120    1.5290 c3        1 MOL     -0.043775
     83 C26        -1.9970   -3.1680    1.1780 c         1 MOL      0.737199
     84 O13        -1.7540   -2.3140    0.2960 o         1 MOL     -0.721730
     85 C27        -3.9020   -4.9130    0.8680 c3        1 MOL     -0.142718
     86 C28        -4.1090   -4.7350   -0.6000 ca        1 MOL      0.134553
     87 C29        -3.0580   -4.6850   -1.5740 ca        1 MOL     -0.204810
     88 C30        -5.4570   -4.7650   -1.0900 ca        1 MOL     -0.204810
     89 C31        -3.3760   -4.4780   -2.8890 ca        1 MOL     -0.231670
     90 C32        -5.7230   -4.7380   -2.4160 ca        1 MOL     -0.231670
     91 C33        -4.7040   -4.4760   -3.3240 ca        1 MOL      0.335207
     92 O14        -5.0680   -4.4550   -4.6490 oh        1 MOL     -0.538606
     93 H37        -4.1330   -1.7170    0.8880 hn        1 MOL      0.247861
     94 H38        -3.4440   -3.8460    2.5960 h1        1 MOL      0.064041
     95 H39        -4.8210   -5.3390    1.2650 hc        1 MOL      0.067442
     96 H40        -3.1130   -5.6600    0.9080 hc        1 MOL      0.067442
     97 H41        -1.9980   -4.8000   -1.3860 ha        1 MOL      0.165238
     98 H42        -6.3350   -4.8390   -0.4720 ha        1 MOL      0.165238
     99 H43        -2.6410   -4.2750   -3.6560 ha        1 MOL      0.130137
    100 H44        -6.7150   -4.9540   -2.7980 ha        1 MOL      0.130137
    101 H45        -6.0290   -4.4710   -4.7040 ho        1 MOL      0.382217
    102 N10        -1.0620   -3.8240    1.8920 n         1 MOL     -0.611975
    103 C34         0.3780   -3.5500    1.8350 c3        1 MOL      0.220659
    104 C35         1.0760   -4.3060    0.7020 c         1 MOL      0.412112
    105 O15         1.1270   -5.5270    0.6110 o         1 MOL     -0.550180
    106 C36         1.0400   -3.8650    3.2390 c3        1 MOL     -0.011591
    107 C37         0.3470   -3.1390    4.4490 c3        1 MOL     -0.231491
    108 C38         2.5010   -3.4240    3.2170 c3        1 MOL     -0.026145
    109 C39         0.5540   -1.5580    4.3710 c3        1 MOL      0.013665
    110 H46        -1.4020   -4.5540    2.4970 hn        1 MOL      0.334552
    111 H47         0.5230   -2.4820    1.6580 h1        1 MOL      0.094053
    112 H48         1.0210   -4.9600    3.3250 hc        1 MOL      0.026682
    113 H49         0.8700   -3.4280    5.3600 hc        1 MOL      0.066776
    114 H50        -0.6990   -3.3990    4.5610 hc        1 MOL      0.066776
    115 H51         3.0650   -4.0550    2.5280 hc        1 MOL      0.010836
    116 H52         2.7200   -2.4010    2.9210 hc        1 MOL      0.010836
    117 H53         2.9670   -3.5780    4.1880 hc        1 MOL      0.010836
    118 H54        -0.1540   -1.1980    5.1130 hc        1 MOL      0.028454
    119 H55         1.5800   -1.3220    4.6700 hc        1 MOL      0.028454
    120 H56         0.1870   -1.1620    3.4310 hc        1 MOL      0.028454
    121 N11         1.8540   -3.6340   -0.1280 n         1 MOL     -0.048045
    122 C40         2.9490   -4.0640   -0.9660 c3        1 MOL     -0.178706
    123 C41         4.3440   -3.6970   -0.5280 c         1 MOL      0.719573
    124 O16         4.5510   -2.9280    0.3680 o         1 MOL     -0.481711
    125 C42         2.6970   -3.3890   -2.3050 c3        1 MOL     -0.010984
    126 O17         2.8570   -2.0090   -2.2720 oh        1 MOL     -0.509050
    127 H57         1.7130   -2.6370   -0.1700 hn        1 MOL      0.013546
    128 H58         2.9980   -5.1640   -0.9690 h1        1 MOL      0.088584
    129 H59         1.7770   -3.7400   -2.7650 h1        1 MOL      0.071805
    130 H60         3.4880   -3.7530   -2.9600 h1        1 MOL      0.071805
    131 H61         2.1900   -1.5860   -1.7280 ho        1 MOL      0.365665
    132 N12         5.3420   -4.3230   -1.1690 n         1 MOL     -0.560121
    133 C43         6.7400   -4.1010   -0.8050 c3        1 MOL      0.065013
    134 C44         7.1490   -2.6500   -1.1090 c         1 MOL      0.482465
    135 O18         8.0350   -2.1000   -0.4770 o         1 MOL     -0.510435
    136 C45         7.5640   -5.1670   -1.5620 c3        1 MOL     -0.359680
    137 H62         5.0570   -5.0810   -1.7740 hn        1 MOL      0.298672
    138 H63         6.7790   -4.2130    0.2750 h1        1 MOL      0.094020
    139 H64         7.2050   -6.1810   -1.4230 hc        1 MOL      0.120458
    140 H65         7.6610   -5.0260   -2.6330 hc        1 MOL      0.120458
    141 H66         8.5290   -5.1650   -1.0500 hc        1 MOL      0.120458
    142 N13         6.5570   -2.0550   -2.1330 n         1 MOL     -0.317997
    143 C46         7.0140   -0.7820   -2.7050 c3        1 MOL     -0.020313
    144 C47         6.7160    0.3030   -1.6060 c         1 MOL      0.496181
    145 O19         7.4890    1.2000   -1.3870 o         1 MOL     -0.511004
    146 C48         6.2440   -0.4980   -4.0500 c3        1 MOL     -0.223855
    147 H67         5.8670   -2.6540   -2.5820 hn        1 MOL      0.267049
    148 H68         8.0830   -0.9510   -2.8340 h1        1 MOL      0.108229
    149 H69         6.3300   -1.2960   -4.7840 hc        1 MOL      0.071022
    150 H70         5.1770   -0.4690   -3.8520 hc        1 MOL      0.071022
    151 H71         6.5990    0.4380   -4.4760 hc        1 MOL      0.071022
    152 N14         5.4540    0.2550   -1.0290 n         1 MOL     -0.242228
    153 C49         5.0140    1.1520    0.0530 c3        1 MOL     -0.288185
    154 C50         5.5590    0.7950    1.4670 c         1 MOL      0.569644
    155 O20         5.7160    1.6670    2.3220 o         1 MOL     -0.539490
    156 C51         3.4840    1.2040    0.0070 c3        1 MOL      0.351503
    157 C52         2.7610   -0.0660    0.4830 c3        1 MOL     -0.037996
    158 C53         1.3020   -0.0290    0.1400 c         1 MOL      0.510583
    159 O21         0.5120    0.8640    0.6100 o         1 MOL     -0.618966
    160 O22         0.9040   -0.9910   -0.6010 o         1 MOL     -0.618966
    161 H72         4.8060   -0.4640   -1.3350 hn        1 MOL      0.138493
    162 H73         5.3280    2.1440   -0.2650 h1        1 MOL      0.107939
    163 H74         3.2220    1.5450   -1.0000 hc        1 MOL     -0.102532
    164 H75         3.1070    2.0270    0.6280 hc        1 MOL     -0.102532
    165 H76         2.7470   -0.0210    1.5730 hc        1 MOL      0.013130
    166 H77         3.2800   -0.9230    0.0340 hc        1 MOL      0.013130
    167 N15         5.9080   -0.5230    1.6220 n         1 MOL     -0.156591
    168 C54         6.6170   -0.9950    2.7810 c3        1 MOL     -0.217690
    169 H78         7.5690   -1.4260    2.4730 h1        1 MOL      0.092527
    170 H79         6.7980   -0.1630    3.4620 h1        1 MOL      0.092527
    171 H80         6.0210   -1.7560    3.2860 h1        1 MOL      0.092527
    172 H81         5.5910   -1.2090    0.9450 hn        1 MOL      0.165514
    173 Ca1        -1.4670    0.1100   -0.7040 Ca        1 MOL      1.784928
    174 O23        -1.0980   -0.1650   -3.2940 oh        1 MOL     -0.866747
    175 H82        -0.4790   -0.5900   -3.8810 ho        1 MOL      0.407442
    176 H83        -1.5470    0.4820   -3.8460 ho        1 MOL      0.407442
    177 O24         0.6680    2.0250   -2.3120 oh        1 MOL     -0.866747
    178 H84         1.1840    1.4430   -2.8640 ho        1 MOL      0.407442
    179 H85         0.9140    2.9090   -2.6000 ho        1 MOL      0.407442
@<TRIPOS>BOND
     1    1    2 1   
     2    1    4 1   
     3    1    5 1   
     4    1    6 1   
     5    2    3 2   
     6    2    7 1   
     7    7    8 1   
     8    7   15 1   
     9    8    9 1   
    10    8   11 1   
    11    8   16 1   
    12    9   10 2   
    13    9   19 1   
    14   11   12 1   
    15   11   17 1   
    16   11   18 1   
    17   12   13 1   
    18   12   14 1   
    19   19   20 1   
    20   19   28 1   
    21   20   21 1   
    22   20   23 1   
    23   20   29 1   
    24   21   22 2   
    25   21   41 1   
    26   23   24 1   
    27   23   30 1   
    28   23   31 1   
    29   24   25 1   
    30   24   32 1   
    31   24   33 1   
    32   25   26 1   
    33   25   34 1   
    34   25   35 1   
    35   26   27 1   
    36   26   36 1   
    37   26   37 1   
    38   27   38 1   
    39   27   39 1   
    40   27   40 1   
    41   41   42 1   
    42   41   49 1   
    43   42   43 1   
    44   42   45 1   
    45   42   50 1   
    46   43   44 2   
    47   43   53 1   
    48   45   46 1   
    49   45   51 1   
    50   45   52 1   
    51   46   47 1   
    52   46   48 1   
    53   53   54 1   
    54   53   57 1   
    55   54   55 1   
    56   54   58 1   
    57   54   59 1   
    58   55   56 2   
    59   55   60 1   
    60   60   61 1   
    61   60   68 1   
    62   61   62 1   
    63   61   64 1   
    64   61   69 1   
    65   62   63 2   
    66   62   74 1   
    67   64   65 1   
    68   64   70 1   
    69   64   71 1   
    70   65   66 1   
    71   65   67 2   
    72   66   72 1   
    73   66   73 1   
    74   74   75 1   
    75   74   78 1   
    76   75   76 1   
    77   75   79 1   
    78   75   80 1   
    79   76   77 2   
    80   76   81 1   
    81   81   82 1   
    82   81   93 1   
    83   82   83 1   
    84   82   85 1   
    85   82   94 1   
    86   83   84 2   
    87   83  102 1   
    88   85   86 1   
    89   85   95 1   
    90   85   96 1   
    91   86   87 ar  
    92   86   88 ar  
    93   87   89 ar  
    94   87   97 1   
    95   88   90 ar  
    96   88   98 1   
    97   89   91 ar  
    98   89   99 1   
    99   90   91 ar  
   100   90  100 1   
   101   91   92 1   
   102   92  101 1   
   103  102  103 1   
   104  102  110 1   
   105  103  104 1   
   106  103  106 1   
   107  103  111 1   
   108  104  105 2   
   109  104  121 1   
   110  106  107 1   
   111  106  108 1   
   112  106  112 1   
   113  107  109 1   
   114  107  113 1   
   115  107  114 1   
   116  108  115 1   
   117  108  116 1   
   118  108  117 1   
   119  109  118 1   
   120  109  119 1   
   121  109  120 1   
   122  121  122 1   
   123  121  127 1   
   124  122  123 1   
   125  122  125 1   
   126  122  128 1   
   127  123  124 2   
   128  123  132 1   
   129  125  126 1   
   130  125  129 1   
   131  125  130 1   
   132  126  131 1   
   133  132  133 1   
   134  132  137 1   
   135  133  134 1   
   136  133  136 1   
   137  133  138 1   
   138  134  135 2   
   139  134  142 1   
   140  136  139 1   
   141  136  140 1   
   142  136  141 1   
   143  142  143 1   
   144  142  147 1   
   145  143  144 1   
   146  143  146 1   
   147  143  148 1   
   148  144  145 2   
   149  144  152 1   
   150  146  149 1   
   151  146  150 1   
   152  146  151 1   
   153  152  153 1   
   154  152  161 1   
   155  153  154 1   
   156  153  156 1   
   157  153  162 1   
   158  154  155 2   
   159  154  167 1   
   160  156  157 1   
   161  156  163 1   
   162  156  164 1   
   163  157  158 1   
   164  157  165 1   
   165  157  166 1   
   166  158  159 1   
   167  158  160 1   
   168  167  168 1   
   169  167  172 1   
   170  168  169 1   
   171  168  170 1   
   172  168  171 1   
   173  174  175 1   
   174  174  176 1   
   175  177  178 1   
   176  177  179 1   
@<TRIPOS>SUBSTRUCTURE
     1 MOL         1 TEMP              0 ****  ****    0 ROOT
