@<TRIPOS>MOLECULE
MOL
  186   183     1     0     0
SMALL
resp


@<TRIPOS>ATOM
      1 C1          0.3450   -0.6750    6.2180 c3        1 MOL     -0.293757
      2 C2          0.8130   -0.8930    4.7590 c         1 MOL      0.701698
      3 O1          0.0290   -1.5050    4.0070 o         1 MOL     -0.557554
      4 H1          0.9780    0.0750    6.6940 hc        1 MOL      0.069563
      5 H2         -0.6890   -0.3320    6.2210 hc        1 MOL      0.069563
      6 H3          0.4200   -1.6140    6.7680 hc        1 MOL      0.069563
      7 N1          2.0030   -0.4180    4.3720 n         1 MOL     -0.536822
      8 C3          2.6620   -0.8650    3.1460 c3        1 MOL      0.133182
      9 C4          3.0280   -2.3420    3.2590 c         1 MOL      0.518707
     10 O2          3.4610   -2.7310    4.3020 o         1 MOL     -0.595216
     11 C5          3.9030    0.0990    2.8550 c3        1 MOL      0.022782
     12 C6          4.6300   -0.2790    1.5160 c         1 MOL      0.427060
     13 O3          5.8790   -0.3830    1.5070 o         1 MOL     -0.570601
     14 O4          3.9060   -0.7170    0.6100 o         1 MOL     -0.570601
     15 H4          2.5000    0.1500    5.0450 hn        1 MOL      0.284716
     16 H5          1.9580   -0.7940    2.3150 h1        1 MOL      0.049303
     17 H6          4.6780    0.1410    3.6260 hc        1 MOL     -0.018914
     18 H7          3.5330    1.1150    2.6930 hc        1 MOL     -0.018914
     19 N2          2.7750   -3.0710    2.1780 n         1 MOL     -0.110248
     20 C7          3.0390   -4.4660    1.8960 c3        1 MOL     -0.152038
     21 C8          4.1620   -4.5570    0.8920 c         1 MOL      0.693190
     22 O5          5.1520   -5.2640    1.1180 o         1 MOL     -0.649644
     23 C9          1.7310   -5.3010    1.5250 c3        1 MOL      0.237732
     24 C10         0.5710   -5.0000    2.5380 c3        1 MOL      0.062138
     25 C11         2.1190   -6.7370    1.6120 c3        1 MOL     -0.554593
     26 C12        -0.7880   -5.5650    2.0930 c3        1 MOL     -0.067799
     27 H8          2.2870   -2.6090    1.4230 hn        1 MOL     -0.025333
     28 H9          3.5030   -4.8320    2.8120 h1        1 MOL      0.077407
     29 H10         1.4020   -5.1720    0.4950 hc        1 MOL      0.061939
     30 H11         0.4170   -3.9480    2.7870 hc        1 MOL     -0.000721
     31 H12         0.7300   -5.4920    3.4970 hc        1 MOL     -0.000721
     32 H13         2.8390   -6.8650    0.8000 hc        1 MOL      0.119667
     33 H14         2.5920   -7.0250    2.5460 hc        1 MOL      0.119667
     34 H15         1.3130   -7.3820    1.2760 hc        1 MOL      0.119667
     35 H16        -1.6030   -5.3440    2.7900 hc        1 MOL      0.004203
     36 H17        -1.0890   -5.1150    1.1420 hc        1 MOL      0.004203
     37 H18        -0.7240   -6.6180    1.8600 hc        1 MOL      0.004203
     38 N3          4.1900   -3.8110   -0.2270 n         1 MOL     -0.405475
     39 C13         4.9960   -4.2660   -1.4560 c3        1 MOL     -0.024851
     40 C14         6.2790   -3.4050   -1.6130 c         1 MOL      0.433313
     41 O6          6.8960   -3.4410   -2.6860 o         1 MOL     -0.501255
     42 C15         4.0580   -4.3450   -2.6930 c3        1 MOL     -0.217904
     43 C16         3.0590   -3.1930   -2.8110 c         1 MOL      0.791510
     44 O7          3.2670   -2.1030   -2.1850 o         1 MOL     -0.709191
     45 O8          1.9730   -3.4180   -3.4410 o         1 MOL     -0.709191
     46 H19         3.4670   -3.1110   -0.3680 hn        1 MOL      0.234530
     47 H20         5.4000   -5.2590   -1.2850 h1        1 MOL      0.106193
     48 H21         3.4640   -5.2450   -2.5590 hc        1 MOL      0.055564
     49 H22         4.6640   -4.3540   -3.6000 hc        1 MOL      0.055564
     50 N4          6.6960   -2.7310   -0.5580 n         1 MOL     -0.202468
     51 C17         8.0850   -2.2050   -0.5600 c3        1 MOL     -0.231916
     52 C18         8.1910   -0.8860   -1.3460 c         1 MOL      0.565757
     53 O9          9.1580   -0.7280   -2.0860 o         1 MOL     -0.592048
     54 H23         6.1660   -2.6600    0.2950 hn        1 MOL      0.292823
     55 H24         8.7700   -2.9260   -1.0040 h1        1 MOL      0.098332
     56 H25         8.2570   -1.8690    0.4600 h1        1 MOL      0.098332
     57 N5          7.2370    0.0570   -1.2590 n         1 MOL     -0.145443
     58 C19         7.2930    1.3760   -1.8780 c3        1 MOL     -0.025570
     59 C20         6.9790    2.4900   -0.8470 c         1 MOL      0.476262
     60 O10         6.8260    3.6430   -1.2110 o         1 MOL     -0.532536
     61 C21         6.4070    1.4240   -3.1250 c3        1 MOL     -0.082137
     62 C22         4.8760    1.4850   -2.9500 c         1 MOL      0.717755
     63 O11         4.4210    1.2190   -1.8570 o         1 MOL     -0.732999
     64 O12         4.0760    1.6600   -3.9040 o         1 MOL     -0.732999
     65 H26         6.5220   -0.1130   -0.5640 hn        1 MOL      0.003790
     66 H27         8.2750    1.6020   -2.3010 h1        1 MOL      0.076374
     67 H28         6.7370    0.6030   -3.7760 hc        1 MOL      0.027349
     68 H29         6.6410    2.3410   -3.6810 hc        1 MOL      0.027349
     69 N6          6.8010    2.1240    0.4270 n         1 MOL     -0.426377
     70 C23         6.6800    3.1500    1.5610 c3        1 MOL     -0.074669
     71 C24         5.3150    3.9150    1.6120 c         1 MOL      0.390051
     72 O13         5.3250    5.0280    2.0990 o         1 MOL     -0.561587
     73 H30         6.7170    1.1290    0.5810 hn        1 MOL      0.252244
     74 H31         7.5360    3.8170    1.5020 h1        1 MOL      0.106318
     75 H32         6.7830    2.6680    2.5290 h1        1 MOL      0.106318
     76 N7          4.2510    3.4530    0.9280 n         1 MOL     -0.114228
     77 C25         2.9680    4.1550    0.8160 c3        1 MOL     -0.062181
     78 C26         1.8110    3.1700    1.0280 c         1 MOL      0.589129
     79 O14         1.9380    1.9260    0.8120 o         1 MOL     -0.624950
     80 C27         2.8040    4.8950   -0.5010 c3        1 MOL     -0.007654
     81 C28         3.8510    5.9140   -0.7780 c3        1 MOL     -0.154179
     82 C29         3.2570    6.9890   -1.6830 c         1 MOL      0.587889
     83 N8          3.9080    7.1910   -2.8110 n         1 MOL     -0.739703
     84 O15         2.3860    7.8550   -1.3520 o         1 MOL     -0.573271
     85 H33         4.4500    2.6670    0.3240 hn        1 MOL      0.256010
     86 H34         2.8480    4.8840    1.6100 h1        1 MOL      0.061293
     87 H35         1.8860    5.4660   -0.3970 hc        1 MOL      0.036291
     88 H36         2.6630    4.1740   -1.2980 hc        1 MOL      0.036291
     89 H37         4.8010    5.4740   -1.0890 hc        1 MOL      0.076043
     90 H38         4.0800    6.4960    0.1110 hc        1 MOL      0.076043
     91 H39         4.6760    6.5750   -3.0770 hn        1 MOL      0.344307
     92 H40         3.7430    8.0100   -3.3710 hn        1 MOL      0.344307
     93 N9          0.6440    3.7620    1.4690 n         1 MOL     -0.543728
     94 C30        -0.5980    2.9260    1.7150 c3        1 MOL      0.078955
     95 C31        -1.5050    3.2440    0.5390 c         1 MOL      0.389097
     96 O16        -1.9950    4.3960    0.4690 o         1 MOL     -0.569949
     97 C32        -1.1660    3.1390    3.0950 c3        1 MOL      0.271394
     98 C33        -1.9400    1.8920    3.4210 c3        1 MOL     -0.307102
     99 C34        -0.1130    3.2510    4.2230 c3        1 MOL     -0.307102
    100 H41         0.5560    4.7660    1.5280 hn        1 MOL      0.340664
    101 H42        -0.3520    1.8760    1.5850 h1        1 MOL      0.136172
    102 H43        -1.8330    3.9990    3.0510 hc        1 MOL     -0.037642
    103 H44        -2.6280    2.0740    4.2450 hc        1 MOL      0.058302
    104 H45        -2.6020    1.6360    2.5850 hc        1 MOL      0.058302
    105 H46        -1.2150    1.1160    3.6610 hc        1 MOL      0.058302
    106 H47         0.4510    4.1620    4.0450 hc        1 MOL      0.058302
    107 H48        -0.6530    3.4030    5.1510 hc        1 MOL      0.058302
    108 H49         0.5340    2.3830    4.3350 hc        1 MOL      0.058302
    109 N10        -1.7600    2.3630   -0.4030 n         1 MOL     -0.202958
    110 C35        -2.8430    2.5160   -1.3650 c3        1 MOL      0.116228
    111 C36        -4.1460    2.0500   -0.7600 c         1 MOL      0.325395
    112 O17        -4.2360    1.3770    0.3340 o         1 MOL     -0.309989
    113 C37        -2.5720    1.7520   -2.6850 c3        1 MOL     -0.516546
    114 C38        -3.1130    0.3410   -2.9060 c         1 MOL      0.638847
    115 N11        -2.6010   -0.7000   -2.2850 n         1 MOL     -0.742885
    116 O18        -4.1060    0.1300   -3.6140 o         1 MOL     -0.573010
    117 H50        -1.2950    1.4690   -0.3320 hn        1 MOL      0.215311
    118 H51        -2.9080    3.5840   -1.5830 h1        1 MOL      0.080580
    119 H52        -1.4870    1.7360   -2.8060 hc        1 MOL      0.178667
    120 H53        -2.8900    2.4080   -3.4970 hc        1 MOL      0.178667
    121 H54        -1.8200   -0.6660   -1.6350 hn        1 MOL      0.396264
    122 H55        -2.9460   -1.5870   -2.6270 hn        1 MOL      0.396264
    123 N12        -5.2330    2.2540   -1.4930 n         1 MOL     -0.398081
    124 C39        -6.6130    2.0150   -0.8600 c3        1 MOL      0.195445
    125 C40        -6.8210    0.5210   -0.4160 c         1 MOL      0.689560
    126 O19        -7.2010    0.1870    0.7190 o         1 MOL     -0.569703
    127 C41        -7.8180    2.6240   -1.7070 c3        1 MOL     -0.262378
    128 C42        -9.1760    2.4880   -0.9360 ca        1 MOL      0.042821
    129 C43        -9.4560    3.2180    0.2200 ca        1 MOL     -0.175175
    130 C44        -9.9710    1.4100   -1.3430 ca        1 MOL     -0.175175
    131 C45       -10.5470    2.7990    1.0480 ca        1 MOL     -0.257317
    132 C46       -11.1000    1.1470   -0.6260 ca        1 MOL     -0.257317
    133 C47       -11.4270    1.7520    0.6200 ca        1 MOL      0.378599
    134 O20       -12.5850    1.5870    1.2750 oh        1 MOL     -0.531261
    135 H56        -5.1950    2.7990   -2.3440 hn        1 MOL      0.276969
    136 H57        -6.5770    2.5670    0.0830 h1        1 MOL      0.017185
    137 H58        -7.8930    2.0140   -2.6000 hc        1 MOL      0.091229
    138 H59        -7.6510    3.6930   -1.8230 hc        1 MOL      0.091229
    139 H60        -8.8490    4.0340    0.5640 ha        1 MOL      0.157479
    140 H61        -9.5820    0.7930   -2.1430 ha        1 MOL      0.157479
    141 H62       -10.8550    3.2840    1.9710 ha        1 MOL      0.133519
    142 H63       -11.6610    0.2850   -0.9360 ha        1 MOL      0.133519
    143 H64       -13.1560    0.8810    0.9650 ho        1 MOL      0.390438
    144 N13        -6.2950   -0.3850   -1.2730 n         1 MOL     -0.489323
    145 C48        -6.3950   -1.8150   -1.0910 c3        1 MOL      0.016172
    146 C49        -5.4280   -2.3230    0.0120 c         1 MOL      0.304678
    147 O21        -5.6810   -3.4070    0.5630 o         1 MOL     -0.513951
    148 C50        -6.3560   -2.5270   -2.4600 c3        1 MOL      0.115646
    149 C51        -6.4650   -4.0860   -2.5380 c3        1 MOL     -0.367720
    150 C52        -6.8100   -4.6770   -3.8900 c         1 MOL      0.797194
    151 O22        -6.0370   -5.2230   -4.6850 o         1 MOL     -0.763949
    152 O23        -7.9960   -4.5360   -4.2450 o         1 MOL     -0.763949
    153 H65        -5.6530   -0.1260   -2.0060 hn        1 MOL      0.215129
    154 H66        -7.4250   -1.9720   -0.8100 h1        1 MOL      0.097268
    155 H67        -5.3830   -2.2410   -2.8880 hc        1 MOL      0.011069
    156 H68        -7.1850   -2.1520   -3.0600 hc        1 MOL      0.011069
    157 H69        -7.2110   -4.5030   -1.8550 hc        1 MOL      0.053307
    158 H70        -5.5260   -4.4720   -2.1460 hc        1 MOL      0.053307
    159 N14        -4.3790   -1.6180    0.3110 n         1 MOL      0.034313
    160 C53        -3.6320   -1.8260    1.5790 c3        1 MOL      0.030772
    161 C54        -4.3380   -1.1830    2.7750 c         1 MOL      0.371004
    162 O24        -4.3520   -1.8590    3.8130 o         1 MOL     -0.575013
    163 C55        -2.2260   -1.1840    1.2940 c3        1 MOL      0.236066
    164 C56        -1.2850   -2.2240    0.7200 c3        1 MOL     -0.309623
    165 C57        -0.0930   -1.4680    0.0280 c         1 MOL      0.754123
    166 O25         0.9920   -2.1040   -0.0790 o         1 MOL     -0.716718
    167 O26        -0.1130   -0.3170   -0.3880 o         1 MOL     -0.716718
    168 H71        -4.1760   -0.7250   -0.0960 hn        1 MOL     -0.080182
    169 H72        -3.5180   -2.8850    1.7870 h1        1 MOL      0.075136
    170 H73        -1.8350   -0.7760    2.2250 hc        1 MOL     -0.047681
    171 H74        -2.4290   -0.3470    0.6090 hc        1 MOL     -0.047681
    172 H75        -1.8020   -2.8200   -0.0340 hc        1 MOL      0.067333
    173 H76        -0.8870   -2.8490    1.5170 hc        1 MOL      0.067333
    174 N15        -5.0250   -0.0840    2.6640 n         1 MOL      0.081129
    175 C58        -5.8260    0.6100    3.6820 c3        1 MOL     -0.321634
    176 H77        -5.8910   -0.0090    4.5770 h1        1 MOL      0.101416
    177 H78        -5.3530    1.5600    3.9320 h1        1 MOL      0.101416
    178 H79        -6.8280    0.7940    3.2950 h1        1 MOL      0.101416
    179 H80        -5.1220    0.3360    1.7530 hn        1 MOL      0.051874
    180 Ca1         2.2870   -0.0550   -1.2080 Ca        1 MOL      1.785970
    181 O27         0.8900   -1.0590   -3.3300 oh        1 MOL     -0.954380
    182 H81         1.3430   -1.8920   -3.4190 ho        1 MOL      0.428267
    183 H82         0.1050   -1.1490   -3.8810 ho        1 MOL      0.428267
    184 O28         1.7150    2.2520   -2.5070 oh        1 MOL     -0.954380
    185 H83         1.0060    2.2450   -3.1540 ho        1 MOL      0.428267
    186 H84         2.4980    2.4670   -3.0210 ho        1 MOL      0.428267
@<TRIPOS>BOND
     1    1    2 1   
     2    1    4 1   
     3    1    5 1   
     4    1    6 1   
     5    2    3 2   
     6    2    7 1   
     7    7    8 1   
     8    7   15 1   
     9    8    9 1   
    10    8   11 1   
    11    8   16 1   
    12    9   10 2   
    13    9   19 1   
    14   11   12 1   
    15   11   17 1   
    16   11   18 1   
    17   12   13 1   
    18   12   14 1   
    19   19   20 1   
    20   19   27 1   
    21   20   21 1   
    22   20   23 1   
    23   20   28 1   
    24   21   22 2   
    25   21   38 1   
    26   23   24 1   
    27   23   25 1   
    28   23   29 1   
    29   24   26 1   
    30   24   30 1   
    31   24   31 1   
    32   25   32 1   
    33   25   33 1   
    34   25   34 1   
    35   26   35 1   
    36   26   36 1   
    37   26   37 1   
    38   38   39 1   
    39   38   46 1   
    40   39   40 1   
    41   39   42 1   
    42   39   47 1   
    43   40   41 2   
    44   40   50 1   
    45   42   43 1   
    46   42   48 1   
    47   42   49 1   
    48   43   44 1   
    49   43   45 1   
    50   50   51 1   
    51   50   54 1   
    52   51   52 1   
    53   51   55 1   
    54   51   56 1   
    55   52   53 2   
    56   52   57 1   
    57   57   58 1   
    58   57   65 1   
    59   58   59 1   
    60   58   61 1   
    61   58   66 1   
    62   59   60 2   
    63   59   69 1   
    64   61   62 1   
    65   61   67 1   
    66   61   68 1   
    67   62   63 1   
    68   62   64 1   
    69   69   70 1   
    70   69   73 1   
    71   70   71 1   
    72   70   74 1   
    73   70   75 1   
    74   71   72 2   
    75   71   76 1   
    76   76   77 1   
    77   76   85 1   
    78   77   78 1   
    79   77   80 1   
    80   77   86 1   
    81   78   79 2   
    82   78   93 1   
    83   80   81 1   
    84   80   87 1   
    85   80   88 1   
    86   81   82 1   
    87   81   89 1   
    88   81   90 1   
    89   82   83 1   
    90   82   84 2   
    91   83   91 1   
    92   83   92 1   
    93   93   94 1   
    94   93  100 1   
    95   94   95 1   
    96   94   97 1   
    97   94  101 1   
    98   95   96 2   
    99   95  109 1   
   100   97   98 1   
   101   97   99 1   
   102   97  102 1   
   103   98  103 1   
   104   98  104 1   
   105   98  105 1   
   106   99  106 1   
   107   99  107 1   
   108   99  108 1   
   109  109  110 1   
   110  109  117 1   
   111  110  111 1   
   112  110  113 1   
   113  110  118 1   
   114  111  112 2   
   115  111  123 1   
   116  113  114 1   
   117  113  119 1   
   118  113  120 1   
   119  114  115 1   
   120  114  116 2   
   121  115  121 1   
   122  115  122 1   
   123  123  124 1   
   124  123  135 1   
   125  124  125 1   
   126  124  127 1   
   127  124  136 1   
   128  125  126 2   
   129  125  144 1   
   130  127  128 1   
   131  127  137 1   
   132  127  138 1   
   133  128  129 ar  
   134  128  130 ar  
   135  129  131 ar  
   136  129  139 1   
   137  130  132 ar  
   138  130  140 1   
   139  131  133 ar  
   140  131  141 1   
   141  132  133 ar  
   142  132  142 1   
   143  133  134 1   
   144  134  143 1   
   145  144  145 1   
   146  144  153 1   
   147  145  146 1   
   148  145  148 1   
   149  145  154 1   
   150  146  147 2   
   151  146  159 1   
   152  148  149 1   
   153  148  155 1   
   154  148  156 1   
   155  149  150 1   
   156  149  157 1   
   157  149  158 1   
   158  150  151 1   
   159  150  152 1   
   160  159  160 1   
   161  159  168 1   
   162  160  161 1   
   163  160  163 1   
   164  160  169 1   
   165  161  162 2   
   166  161  174 1   
   167  163  164 1   
   168  163  170 1   
   169  163  171 1   
   170  164  165 1   
   171  164  172 1   
   172  164  173 1   
   173  165  166 1   
   174  165  167 1   
   175  174  175 1   
   176  174  179 1   
   177  175  176 1   
   178  175  177 1   
   179  175  178 1   
   180  181  182 1   
   181  181  183 1   
   182  184  185 1   
   183  184  186 1   
@<TRIPOS>SUBSTRUCTURE
     1 MOL         1 TEMP              0 ****  ****    0 ROOT
