@<TRIPOS>MOLECULE
MOL
  189   185     1     0     0
SMALL
resp


@<TRIPOS>ATOM
      1 C1         -0.0700    3.4830   -4.2160 c3        1 MOL     -0.397657
      2 C2          0.6170    2.8810   -3.0080 c         1 MOL      0.660717
      3 O1          0.0280    2.9100   -1.9010 o         1 MOL     -0.562482
      4 H1         -0.8270    2.7910   -4.5860 hc        1 MOL      0.103050
      5 H2         -0.5460    4.4220   -3.9330 hc        1 MOL      0.103050
      6 H3          0.6650    3.6690   -4.9990 hc        1 MOL      0.103050
      7 N1          1.8180    2.3200   -3.2250 n         1 MOL     -0.576740
      8 C3          2.7480    1.9640   -2.1200 c3        1 MOL      0.081137
      9 C4          3.4640    3.2010   -1.5350 c         1 MOL      0.494527
     10 O2          4.6920    3.2160   -1.3950 o         1 MOL     -0.454067
     11 C5          3.6960    0.7760   -2.4510 c3        1 MOL     -0.092610
     12 C6          4.2960    0.1060   -1.2450 c         1 MOL      0.572931
     13 O3          3.5760   -0.0220   -0.2280 o         1 MOL     -0.647764
     14 O4          5.5510   -0.1380   -1.2390 o         1 MOL     -0.647764
     15 H4          2.1090    2.1820   -4.1840 hn        1 MOL      0.341621
     16 H5          2.1340    1.5750   -1.3020 h1        1 MOL      0.091181
     17 H6          4.4290    1.1140   -3.1940 hc        1 MOL      0.034182
     18 H7          3.0520    0.0680   -2.9710 hc        1 MOL      0.034182
     19 N2          2.6270    4.1580   -1.0880 n         1 MOL     -0.428166
     20 C7          3.0800    5.3570   -0.3810 c3        1 MOL     -0.203441
     21 C8          3.8040    5.0590    0.9370 c         1 MOL      0.543393
     22 O5          4.7790    5.7220    1.3010 o         1 MOL     -0.566170
     23 C9          1.8990    6.3340   -0.0260 c3        1 MOL      0.026302
     24 C10         1.4120    7.0450   -1.3300 c3        1 MOL      0.051073
     25 C11         0.2570    7.9800   -0.9360 c3        1 MOL      0.023583
     26 C12        -0.3620    8.5800   -2.2050 c3        1 MOL      0.051549
     27 N3         -1.6810    9.3340   -1.8030 n4        1 MOL     -0.323832
     28 H8          1.6260    4.0160   -1.1750 hn        1 MOL      0.315932
     29 H9          3.8120    5.8570   -1.0200 h1        1 MOL      0.137956
     30 H10         2.2120    7.0530    0.7250 hc        1 MOL      0.030228
     31 H11         1.1290    5.8340    0.5680 hc        1 MOL      0.030228
     32 H12         1.0730    6.3240   -2.0660 hc        1 MOL      0.000791
     33 H13         2.2220    7.7180   -1.6280 hc        1 MOL      0.000791
     34 H14         0.6380    8.7500   -0.2790 hc        1 MOL      0.016449
     35 H15        -0.5190    7.3850   -0.4470 hc        1 MOL      0.016449
     36 H16        -0.4680    7.7870   -2.9510 hx        1 MOL      0.077625
     37 H17         0.3010    9.3410   -2.6240 hx        1 MOL      0.077625
     38 H18        -1.5680   10.0110   -1.0630 hn        1 MOL      0.309624
     39 H19        -2.1640    9.7390   -2.5890 hn        1 MOL      0.309624
     40 H20        -2.3410    8.6810   -1.4030 hn        1 MOL      0.309624
     41 N4          3.4320    3.9600    1.6030 n         1 MOL     -0.345649
     42 C13         4.1390    3.4850    2.8240 c3        1 MOL      0.111674
     43 C14         5.2690    2.4410    2.5900 c         1 MOL      0.330687
     44 O6          5.9860    2.2300    3.5700 o         1 MOL     -0.524252
     45 C15         3.1620    3.0230    3.8650 c3        1 MOL     -0.354017
     46 C16         2.2930    1.8100    3.5780 c         1 MOL      0.944661
     47 O7          1.2780    1.6600    4.2440 o         1 MOL     -0.771535
     48 O8          2.6740    1.1100    2.6080 o         1 MOL     -0.771535
     49 H21         2.7970    3.2890    1.1840 hn        1 MOL      0.275927
     50 H22         4.5460    4.4030    3.2290 h1        1 MOL      0.096507
     51 H23         2.5660    3.9370    3.9020 hc        1 MOL      0.063736
     52 H24         3.6710    2.8010    4.8050 hc        1 MOL      0.063736
     53 N5          5.5410    1.9940    1.3710 n         1 MOL      0.038911
     54 C17         6.8820    1.4860    0.9830 c3        1 MOL     -0.325556
     55 C18         7.2190    0.1020    1.4860 c         1 MOL      0.590203
     56 O9          8.3810   -0.2210    1.6180 o         1 MOL     -0.580227
     57 H25         4.9540    2.3770    0.6410 hn        1 MOL      0.103250
     58 H26         7.6190    2.2370    1.2710 h1        1 MOL      0.148067
     59 H27         6.9440    1.3300   -0.0920 h1        1 MOL      0.148067
     60 N6          6.2830   -0.8340    1.7070 n         1 MOL     -0.234122
     61 C19         6.5520   -2.1930    2.2170 c3        1 MOL     -0.024981
     62 C20         6.8580   -3.1170    0.9620 c         1 MOL      0.340062
     63 O10         7.2810   -4.2970    1.1860 o         1 MOL     -0.524400
     64 C21         5.4780   -2.8860    3.0550 c3        1 MOL     -0.084722
     65 C22         4.0980   -2.5730    2.4860 c         1 MOL      0.612094
     66 O11         3.7960   -2.8190    1.2690 o         1 MOL     -0.657429
     67 O12         3.2670   -1.8750    3.1210 o         1 MOL     -0.657429
     68 H28         5.3810   -0.6190    1.2870 hn        1 MOL      0.106212
     69 H29         7.4070   -2.2850    2.8930 h1        1 MOL      0.132753
     70 H30         5.4320   -2.5360    4.0870 hc        1 MOL      0.051757
     71 H31         5.6900   -3.9240    3.2980 hc        1 MOL      0.051757
     72 N7          6.5140   -2.6660   -0.2380 n         1 MOL     -0.113947
     73 C23         6.6840   -3.4770   -1.4680 c3        1 MOL     -0.111570
     74 C24         5.4060   -4.2540   -1.8720 c         1 MOL      0.529656
     75 O13         5.4640   -5.1320   -2.7280 o         1 MOL     -0.578172
     76 H32         6.0660   -1.7650   -0.2690 hn        1 MOL      0.233072
     77 H33         7.5210   -4.1650   -1.3740 h1        1 MOL      0.083185
     78 H34         6.9340   -2.8270   -2.3150 h1        1 MOL      0.083185
     79 N8          4.2380   -3.8490   -1.3640 n         1 MOL     -0.194247
     80 C25         2.8860   -4.3590   -1.7330 c3        1 MOL     -0.211228
     81 C26         1.7480   -3.3130   -1.6910 c         1 MOL      0.626640
     82 O14         1.9060   -2.2370   -1.1520 o         1 MOL     -0.609790
     83 C27         2.5110   -5.4920   -0.7580 c3        1 MOL      0.600534
     84 C28         2.9950   -6.8920   -1.2420 c3        1 MOL     -0.418484
     85 O15         2.8960   -5.3320    0.5870 oh        1 MOL     -0.680826
     86 H35         4.2740   -3.2150   -0.5830 hn        1 MOL      0.122535
     87 H36         2.9780   -4.7720   -2.7360 h1        1 MOL      0.104139
     88 H37         1.4250   -5.5370   -0.7180 h1        1 MOL     -0.108757
     89 H38         2.8890   -4.3840    0.7220 ho        1 MOL      0.448570
     90 H39         2.9980   -6.8920   -2.3350 hc        1 MOL      0.097027
     91 H40         4.0510   -7.0230   -0.9840 hc        1 MOL      0.097027
     92 H41         2.3950   -7.7010   -0.8250 hc        1 MOL      0.097027
     93 N9          0.6240   -3.6630   -2.2420 n         1 MOL     -0.539439
     94 C29        -0.5830   -2.7370   -2.4370 c3        1 MOL      0.222855
     95 C30        -1.7960   -3.3550   -1.7050 c         1 MOL      0.399369
     96 O16        -2.0610   -4.5240   -1.9850 o         1 MOL     -0.561932
     97 C31        -0.9040   -2.5150   -3.8530 c3        1 MOL      0.160507
     98 C32         0.3550   -1.7700   -4.4440 c3        1 MOL     -0.000008
     99 C33        -2.2640   -1.6840   -3.9860 c3        1 MOL     -0.252831
    100 C34         0.1860   -1.3360   -5.9450 c3        1 MOL     -0.148475
    101 H42         0.6780   -4.5600   -2.7070 hn        1 MOL      0.258181
    102 H43        -0.4170   -1.7830   -1.9420 h1        1 MOL      0.020377
    103 H44        -1.0190   -3.4820   -4.3410 hc        1 MOL     -0.005207
    104 H45         1.2150   -2.4380   -4.4270 hc        1 MOL      0.016942
    105 H46         0.5590   -0.8570   -3.8910 hc        1 MOL      0.016942
    106 H47        -2.2780   -0.8310   -3.3180 hc        1 MOL      0.045061
    107 H48        -2.5080   -1.4730   -5.0320 hc        1 MOL      0.045061
    108 H49        -3.1110   -2.2650   -3.6370 hc        1 MOL      0.045061
    109 H50         1.0940   -0.9070   -6.3710 hc        1 MOL      0.030550
    110 H51        -0.1080   -2.2130   -6.5270 hc        1 MOL      0.030550
    111 H52        -0.6140   -0.6040   -6.0480 hc        1 MOL      0.030550
    112 N10        -2.4850   -2.6320   -0.8220 n         1 MOL     -0.142113
    113 C35        -3.7240   -2.9870   -0.0760 c3        1 MOL     -0.066008
    114 C36        -4.9490   -2.4720   -0.8040 c         1 MOL      0.478895
    115 O17        -4.8420   -1.5650   -1.6360 o         1 MOL     -0.383478
    116 C37        -3.6570   -2.4070    1.3480 c3        1 MOL      0.129424
    117 C38        -2.6380   -3.1110    2.2530 c3        1 MOL     -0.347335
    118 O18        -3.3470   -1.0800    1.2300 oh        1 MOL     -0.386448
    119 H53        -2.1080   -1.7010   -0.7460 hn        1 MOL      0.204805
    120 H54        -3.8160   -4.0740   -0.0830 h1        1 MOL      0.066299
    121 H55        -4.6300   -2.5450    1.8290 h1        1 MOL      0.021646
    122 H56        -2.3980   -1.0490    1.0900 ho        1 MOL      0.228136
    123 H57        -1.7000   -3.3000    1.7400 hc        1 MOL      0.109118
    124 H58        -2.3980   -2.5190    3.1360 hc        1 MOL      0.109118
    125 H59        -3.0040   -4.0910    2.5670 hc        1 MOL      0.109118
    126 N11        -6.1730   -2.8590   -0.3950 n         1 MOL     -0.383874
    127 C39        -7.3910   -2.1160   -0.7790 c3        1 MOL     -0.374264
    128 C40        -7.4900   -0.6440   -0.3600 c         1 MOL      0.520414
    129 O19        -7.7420    0.1290   -1.2310 o         1 MOL     -0.464513
    130 C41        -8.6400   -2.8470   -0.2670 c3        1 MOL      0.434510
    131 C42        -8.7410   -4.2090   -0.8730 c3        1 MOL     -0.439105
    132 O20        -8.5470   -2.8940    1.1030 oh        1 MOL     -0.568569
    133 H60        -6.2180   -3.5810    0.3120 hn        1 MOL      0.311962
    134 H61        -7.3800   -2.0660   -1.8690 h1        1 MOL      0.188223
    135 H62        -9.5020   -2.2540   -0.5990 h1        1 MOL      0.017202
    136 H63        -9.2500   -2.2770    1.3090 ho        1 MOL      0.345649
    137 H64        -8.4520   -4.1450   -1.9220 hc        1 MOL      0.124333
    138 H65        -7.9570   -4.7640   -0.3690 hc        1 MOL      0.124333
    139 H66        -9.7630   -4.5950   -0.8950 hc        1 MOL      0.124333
    140 N12        -7.0570   -0.3460    0.8700 n         1 MOL     -0.393726
    141 C43        -6.8840    1.0140    1.3610 c3        1 MOL     -0.038268
    142 C44        -6.0220    1.9060    0.4680 c         1 MOL      0.362483
    143 O21        -6.4100    3.0480    0.1590 o         1 MOL     -0.518189
    144 C45        -6.3450    1.1350    2.8060 c3        1 MOL     -0.158440
    145 C46        -7.3390    0.4370    3.7220 c3        1 MOL      0.288062
    146 C47        -6.7660    0.4090    5.1410 c3        1 MOL     -0.048919
    147 C48        -7.6260   -0.4420    6.1240 c3        1 MOL     -0.054207
    148 N13        -8.9130    0.0900    6.5470 n4        1 MOL     -0.200645
    149 H67        -6.8000   -1.0800    1.5180 hn        1 MOL      0.280440
    150 H68        -7.8730    1.4590    1.3860 h1        1 MOL      0.092285
    151 H69        -6.1290    2.1470    3.1350 hc        1 MOL      0.056682
    152 H70        -5.3950    0.6110    2.8400 hc        1 MOL      0.056682
    153 H71        -7.6310   -0.5680    3.4420 hc        1 MOL     -0.065260
    154 H72        -8.2600    1.0230    3.7240 hc        1 MOL     -0.065260
    155 H73        -6.7570    1.4630    5.4200 hc        1 MOL      0.048995
    156 H74        -5.7720   -0.0260    5.1850 hc        1 MOL      0.048995
    157 H75        -7.0950   -0.5050    7.0670 hx        1 MOL      0.093746
    158 H76        -7.8050   -1.4020    5.6260 hx        1 MOL      0.093746
    159 H77        -8.9780    1.0910    6.6910 hn        1 MOL      0.247448
    160 H78        -9.6350   -0.1960    5.9000 hn        1 MOL      0.247448
    161 H79        -9.2180   -0.1970    7.4740 hn        1 MOL      0.247448
    162 N14        -4.8860    1.4220   -0.0880 n         1 MOL     -0.023968
    163 C49        -4.0880    2.1500   -1.1160 c3        1 MOL     -0.262629
    164 C50        -4.6420    2.2750   -2.4890 c         1 MOL      0.588563
    165 O22        -4.4410    3.2590   -3.1480 o         1 MOL     -0.584916
    166 C51        -2.7720    1.4220   -1.1820 c3        1 MOL      0.053009
    167 C52        -1.8710    1.6260    0.0600 c3        1 MOL      0.004094
    168 C53        -0.5580    0.7770    0.1900 c         1 MOL      0.874098
    169 O23        -0.5790   -0.5020    0.0340 o         1 MOL     -0.825962
    170 O24         0.4150    1.2520    0.7000 o         1 MOL     -0.825962
    171 H80        -4.5210    0.5840    0.3490 hn        1 MOL      0.164978
    172 H81        -3.8460    3.1820   -0.8390 h1        1 MOL      0.117479
    173 H82        -2.2660    1.6510   -2.1120 hc        1 MOL      0.009518
    174 H83        -3.0950    0.3840   -1.2810 hc        1 MOL      0.009518
    175 H84        -2.5060    1.4150    0.9300 hc        1 MOL     -0.028504
    176 H85        -1.6240    2.6920    0.0520 hc        1 MOL     -0.028504
    177 N15        -5.4870    1.3370   -2.9510 n         1 MOL     -0.119578
    178 C54        -6.2540    1.3340   -4.2100 c3        1 MOL     -0.399364
    179 H86        -6.7940    0.3920   -4.3040 h1        1 MOL      0.143657
    180 H87        -6.9640    2.1610   -4.2060 h1        1 MOL      0.143657
    181 H88        -5.5710    1.4460   -5.0520 h1        1 MOL      0.143657
    182 H89        -5.5940    0.5590   -2.3190 hn        1 MOL      0.129109
    183 Ca1         1.7920   -0.8990    1.2160 Ca        1 MOL      1.778217
    184 O25         0.0360   -0.7070    3.9730 oh        1 MOL     -0.854949
    185 H90        -0.8240   -0.2990    4.0950 ho        1 MOL      0.406174
    186 H91         0.6600   -0.0080    4.1580 ho        1 MOL      0.406174
    187 O26         0.7660   -3.3940    1.5360 oh        1 MOL     -0.854949
    188 H92         0.3970   -4.0540    0.9580 ho        1 MOL      0.406174
    189 H93         0.7380   -3.7940    2.4040 ho        1 MOL      0.406174
@<TRIPOS>BOND
     1    1    2 1   
     2    1    4 1   
     3    1    5 1   
     4    1    6 1   
     5    2    3 2   
     6    2    7 1   
     7    7    8 1   
     8    7   15 1   
     9    8    9 1   
    10    8   11 1   
    11    8   16 1   
    12    9   10 2   
    13    9   19 1   
    14   11   12 1   
    15   11   17 1   
    16   11   18 1   
    17   12   13 1   
    18   12   14 1   
    19   19   20 1   
    20   19   28 1   
    21   20   21 1   
    22   20   23 1   
    23   20   29 1   
    24   21   22 2   
    25   21   41 1   
    26   23   24 1   
    27   23   30 1   
    28   23   31 1   
    29   24   25 1   
    30   24   32 1   
    31   24   33 1   
    32   25   26 1   
    33   25   34 1   
    34   25   35 1   
    35   26   27 1   
    36   26   36 1   
    37   26   37 1   
    38   27   38 1   
    39   27   39 1   
    40   27   40 1   
    41   41   42 1   
    42   41   49 1   
    43   42   43 1   
    44   42   45 1   
    45   42   50 1   
    46   43   44 2   
    47   43   53 1   
    48   45   46 1   
    49   45   51 1   
    50   45   52 1   
    51   46   47 1   
    52   46   48 1   
    53   53   54 1   
    54   53   57 1   
    55   54   55 1   
    56   54   58 1   
    57   54   59 1   
    58   55   56 2   
    59   55   60 1   
    60   60   61 1   
    61   60   68 1   
    62   61   62 1   
    63   61   64 1   
    64   61   69 1   
    65   62   63 2   
    66   62   72 1   
    67   64   65 1   
    68   64   70 1   
    69   64   71 1   
    70   65   66 1   
    71   65   67 1   
    72   72   73 1   
    73   72   76 1   
    74   73   74 1   
    75   73   77 1   
    76   73   78 1   
    77   74   75 2   
    78   74   79 1   
    79   79   80 1   
    80   79   86 1   
    81   80   81 1   
    82   80   83 1   
    83   80   87 1   
    84   81   82 2   
    85   81   93 1   
    86   83   84 1   
    87   83   85 1   
    88   83   88 1   
    89   84   90 1   
    90   84   91 1   
    91   84   92 1   
    92   85   89 1   
    93   93   94 1   
    94   93  101 1   
    95   94   95 1   
    96   94   97 1   
    97   94  102 1   
    98   95   96 2   
    99   95  112 1   
   100   97   98 1   
   101   97   99 1   
   102   97  103 1   
   103   98  100 1   
   104   98  104 1   
   105   98  105 1   
   106   99  106 1   
   107   99  107 1   
   108   99  108 1   
   109  100  109 1   
   110  100  110 1   
   111  100  111 1   
   112  112  113 1   
   113  112  119 1   
   114  113  114 1   
   115  113  116 1   
   116  113  120 1   
   117  114  115 2   
   118  114  126 1   
   119  116  117 1   
   120  116  118 1   
   121  116  121 1   
   122  117  123 1   
   123  117  124 1   
   124  117  125 1   
   125  118  122 1   
   126  126  127 1   
   127  126  133 1   
   128  127  128 1   
   129  127  130 1   
   130  127  134 1   
   131  128  129 2   
   132  128  140 1   
   133  130  131 1   
   134  130  132 1   
   135  130  135 1   
   136  131  137 1   
   137  131  138 1   
   138  131  139 1   
   139  132  136 1   
   140  140  141 1   
   141  140  149 1   
   142  141  142 1   
   143  141  144 1   
   144  141  150 1   
   145  142  143 2   
   146  142  162 1   
   147  144  145 1   
   148  144  151 1   
   149  144  152 1   
   150  145  146 1   
   151  145  153 1   
   152  145  154 1   
   153  146  147 1   
   154  146  155 1   
   155  146  156 1   
   156  147  148 1   
   157  147  157 1   
   158  147  158 1   
   159  148  159 1   
   160  148  160 1   
   161  148  161 1   
   162  162  163 1   
   163  162  171 1   
   164  163  164 1   
   165  163  166 1   
   166  163  172 1   
   167  164  165 2   
   168  164  177 1   
   169  166  167 1   
   170  166  173 1   
   171  166  174 1   
   172  167  168 1   
   173  167  175 1   
   174  167  176 1   
   175  168  169 1   
   176  168  170 1   
   177  177  178 1   
   178  177  182 1   
   179  178  179 1   
   180  178  180 1   
   181  178  181 1   
   182  184  185 1   
   183  184  186 1   
   184  187  188 1   
   185  187  189 1   
@<TRIPOS>SUBSTRUCTURE
     1 MOL         1 TEMP              0 ****  ****    0 ROOT
