@<TRIPOS>MOLECULE
MOL
  189   185     1     0     0
SMALL
resp


@<TRIPOS>ATOM
      1 C1          0.2130   -2.8050    6.2550 c3        1 MOL     -0.375035
      2 C2          0.7270   -2.4500    4.8880 c         1 MOL      0.777083
      3 O1          0.8480   -1.2580    4.5770 o         1 MOL     -0.657939
      4 H1         -0.8460   -3.0530    6.1910 hc        1 MOL      0.093551
      5 H2          0.7640   -3.6630    6.6390 hc        1 MOL      0.093551
      6 H3          0.3470   -1.9550    6.9250 hc        1 MOL      0.093551
      7 N1          1.1430   -3.4230    4.1490 n         1 MOL     -0.600801
      8 C3          1.9870   -3.4380    2.9510 c3        1 MOL      0.317115
      9 C4          1.7590   -4.7320    2.1260 c         1 MOL      0.508689
     10 O2          1.6640   -5.8480    2.6370 o         1 MOL     -0.576837
     11 C5          3.4710   -3.2260    3.2770 c3        1 MOL     -0.458774
     12 C6          4.3180   -2.8140    2.1070 c         1 MOL      0.737782
     13 O3          5.5450   -2.9370    2.2530 o         1 MOL     -0.646183
     14 O4          3.7260   -2.1600    1.1640 o         1 MOL     -0.646183
     15 H4          0.8790   -4.2840    4.6140 hn        1 MOL      0.269391
     16 H5          1.7330   -2.5920    2.3100 h1        1 MOL      0.176238
     17 H6          3.8920   -4.1310    3.7030 hc        1 MOL      0.100677
     18 H7          3.4630   -2.3820    3.9670 hc        1 MOL      0.100677
     19 N2          1.8550   -4.5580    0.7730 n         1 MOL     -0.335915
     20 C7          1.6300   -5.5760   -0.2910 c3        1 MOL     -0.029050
     21 C8          2.7510   -5.4990   -1.3580 c         1 MOL      0.507785
     22 O5          3.0600   -6.4560   -2.0410 o         1 MOL     -0.577200
     23 C9          0.2420   -5.3540   -0.9340 c3        1 MOL      0.262395
     24 C10        -0.8450   -5.2860    0.1580 c3        1 MOL     -0.030703
     25 C11         0.0000   -6.5270   -1.8750 c3        1 MOL     -0.256225
     26 C12        -2.2550   -5.0120   -0.4180 c3        1 MOL     -0.227987
     27 H8          1.9300   -3.5930    0.4580 hn        1 MOL      0.080548
     28 H9          1.6390   -6.5690    0.1490 h1        1 MOL      0.080904
     29 H10         0.3600   -4.4830   -1.5840 hc        1 MOL      0.010201
     30 H11        -0.5610   -4.4290    0.7800 hc        1 MOL      0.002148
     31 H12        -0.7230   -6.1560    0.8000 hc        1 MOL      0.002148
     32 H13        -1.0130   -6.5060   -2.2710 hc        1 MOL      0.046095
     33 H14         0.6520   -6.5280   -2.7430 hc        1 MOL      0.046095
     34 H15         0.1930   -7.4770   -1.3750 hc        1 MOL      0.046095
     35 H16        -2.8340   -5.9310   -0.5020 hc        1 MOL      0.065684
     36 H17        -2.8290   -4.3370    0.2120 hc        1 MOL      0.065684
     37 H18        -2.1720   -4.4770   -1.3660 hc        1 MOL      0.065684
     38 N3          3.4050   -4.3340   -1.5400 n         1 MOL     -0.379039
     39 C13         4.2540   -3.9870   -2.6970 c3        1 MOL      0.186384
     40 C14         5.5780   -3.2460   -2.2550 c         1 MOL      0.264895
     41 O6          6.4340   -3.0730   -3.1710 o         1 MOL     -0.558774
     42 C15         3.5480   -3.0740   -3.6870 c3        1 MOL     -0.304010
     43 C16         2.8910   -1.8280   -3.0600 c         1 MOL      0.778862
     44 O7          3.0770   -1.5490   -1.8360 o         1 MOL     -0.725351
     45 O8          2.1920   -1.0340   -3.7310 o         1 MOL     -0.725351
     46 H19         3.1110   -3.5980   -0.9020 hn        1 MOL      0.268019
     47 H20         4.6000   -4.9020   -3.1860 h1        1 MOL      0.071769
     48 H21         2.7880   -3.6500   -4.2200 hc        1 MOL      0.081795
     49 H22         4.2510   -2.7150   -4.4350 hc        1 MOL      0.081795
     50 N4          5.7400   -2.7570   -1.0670 n         1 MOL      0.038170
     51 C17         7.0490   -2.2410   -0.6300 c3        1 MOL     -0.199922
     52 C18         7.5250   -0.9460   -1.2440 c         1 MOL      0.529179
     53 O9          8.7300   -0.7220   -1.2390 o         1 MOL     -0.625850
     54 H23         4.9400   -2.8100   -0.4520 hn        1 MOL     -0.020756
     55 H24         7.8220   -2.9780   -0.8300 h1        1 MOL      0.099745
     56 H25         6.9570   -2.0190    0.4360 h1        1 MOL      0.099745
     57 N5          6.7120   -0.0580   -1.6790 n         1 MOL     -0.186486
     58 C19         7.1230    1.2500   -2.2290 c3        1 MOL     -0.083080
     59 C20         7.5230    2.2090   -1.0960 c         1 MOL      0.476849
     60 O10         8.2310    3.1430   -1.3360 o         1 MOL     -0.550820
     61 C21         6.0070    1.8630   -3.1790 c3        1 MOL     -0.296257
     62 C22         4.6470    1.9030   -2.4430 c         1 MOL      0.781421
     63 O11         4.5780    1.4070   -1.3090 o         1 MOL     -0.710495
     64 O12         3.6800    2.4730   -3.0100 o         1 MOL     -0.710495
     65 H26         5.7140   -0.1340   -1.5830 hn        1 MOL      0.215706
     66 H27         8.0000    1.0720   -2.8530 h1        1 MOL      0.109005
     67 H28         5.9550    1.2140   -4.0560 hc        1 MOL      0.098484
     68 H29         6.2840    2.8300   -3.5920 hc        1 MOL      0.098484
     69 N6          6.9330    2.0660    0.0760 n         1 MOL     -0.178032
     70 C23         6.9150    3.0260    1.1930 c3        1 MOL     -0.242090
     71 C24         5.8320    4.1680    1.2180 c         1 MOL      0.581696
     72 O13         5.9590    5.1790    1.9330 o         1 MOL     -0.592265
     73 H30         6.2260    1.3460    0.1690 hn        1 MOL      0.151501
     74 H31         7.9190    3.4620    1.1580 h1        1 MOL      0.102158
     75 H32         6.7460    2.4870    2.1240 h1        1 MOL      0.102158
     76 N7          4.6960    3.9410    0.5360 n         1 MOL     -0.278579
     77 C25         3.4000    4.6540    0.6610 c3        1 MOL     -0.017393
     78 C26         2.3220    3.6570    0.9670 c         1 MOL      0.488810
     79 O14         2.5500    2.4260    1.0410 o         1 MOL     -0.575700
     80 C27         3.2170    5.4300   -0.6240 c3        1 MOL     -0.066297
     81 C28         4.2990    6.5560   -0.6530 c3        1 MOL     -0.317052
     82 C29         3.8530    7.5370   -1.6340 c         1 MOL      0.713734
     83 N8          3.8160    7.2840   -2.9410 n         1 MOL     -0.844885
     84 O15         3.4900    8.6410   -1.3050 o         1 MOL     -0.603197
     85 H33         4.5630    2.9780    0.2900 hn        1 MOL      0.242247
     86 H34         3.5020    5.3460    1.4920 h1        1 MOL      0.076680
     87 H35         2.1820    5.7860   -0.6390 hc        1 MOL      0.070187
     88 H36         3.3450    4.7440   -1.4610 hc        1 MOL      0.070187
     89 H37         5.2660    6.0820   -0.8210 hc        1 MOL      0.119851
     90 H38         4.1520    7.0020    0.3290 hc        1 MOL      0.119851
     91 H39         4.1040    6.3970   -3.3130 hn        1 MOL      0.373603
     92 H40         3.5560    8.0650   -3.5380 hn        1 MOL      0.373603
     93 N9          1.1220    4.1220    1.2820 n         1 MOL     -0.426902
     94 C30        -0.0800    3.3320    1.7670 c3        1 MOL      0.028016
     95 C31        -1.0970    3.4150    0.5820 c         1 MOL      0.486588
     96 O16        -1.3450    4.5260    0.1030 o         1 MOL     -0.586499
     97 C32        -0.6240    3.7930    3.1570 c3        1 MOL      0.235253
     98 C33        -1.6190    2.6770    3.6480 c3        1 MOL     -0.389245
     99 C34         0.4580    3.8210    4.2010 c3        1 MOL     -0.389245
    100 H41         0.9160    5.0570    0.9630 hn        1 MOL      0.268827
    101 H42         0.2240    2.2970    1.9610 h1        1 MOL      0.178967
    102 H43        -1.1280    4.7620    3.0630 hc        1 MOL     -0.011429
    103 H44        -2.4690    2.6040    2.9740 hc        1 MOL      0.091358
    104 H45        -1.0880    1.7360    3.6940 hc        1 MOL      0.091358
    105 H46        -2.0460    2.8820    4.6330 hc        1 MOL      0.091358
    106 H47        -0.0260    3.9820    5.1620 hc        1 MOL      0.091358
    107 H48         1.0110    2.8810    4.2670 hc        1 MOL      0.091358
    108 H49         1.0110    4.7290    3.9530 hc        1 MOL      0.091358
    109 N10        -1.6450    2.2930    0.1410 n         1 MOL     -0.050827
    110 C35        -2.6680    2.0930   -0.8340 c3        1 MOL      0.031849
    111 C36        -4.1010    1.9760   -0.1940 c         1 MOL      0.262924
    112 O17        -4.2440    1.6730    1.0150 o         1 MOL     -0.260211
    113 C37        -2.2020    0.7910   -1.5720 c3        1 MOL     -0.099549
    114 C38        -3.1270    0.1110   -2.5540 c         1 MOL      0.563784
    115 N11        -2.7450   -1.1190   -2.8380 n         1 MOL     -0.656679
    116 O18        -4.1950    0.5470   -2.9520 o         1 MOL     -0.572912
    117 H50        -1.3260    1.4810    0.6620 hn        1 MOL     -0.105848
    118 H51        -2.7080    2.9050   -1.5660 h1        1 MOL      0.067982
    119 H52        -2.0170    0.0080   -0.8310 hc        1 MOL      0.088672
    120 H53        -1.2990    1.0080   -2.1420 hc        1 MOL      0.088672
    121 H54        -1.8970   -1.5470   -2.4830 hn        1 MOL      0.341821
    122 H55        -3.3660   -1.5900   -3.4750 hn        1 MOL      0.341821
    123 N12        -5.1200    2.2830   -1.0110 n         1 MOL     -0.350378
    124 C39        -6.5010    2.1020   -0.7130 c3        1 MOL      0.033969
    125 C40        -6.8770    0.6080   -0.3970 c         1 MOL      0.520366
    126 O19        -7.8300    0.4020    0.3170 o         1 MOL     -0.537719
    127 C41        -7.3540    2.5960   -1.8860 c3        1 MOL     -0.082888
    128 C42        -8.7900    2.5360   -1.6930 ca        1 MOL      0.007567
    129 C43        -9.4980    3.5440   -0.9500 ca        1 MOL     -0.155117
    130 C44        -9.5990    1.5680   -2.3500 ca        1 MOL     -0.155117
    131 C45       -10.9110    3.4590   -0.7810 ca        1 MOL     -0.277051
    132 C46       -10.9990    1.4580   -2.1840 ca        1 MOL     -0.277051
    133 C47       -11.6440    2.4180   -1.3680 ca        1 MOL      0.404840
    134 O20       -12.9800    2.4220   -1.3730 oh        1 MOL     -0.581368
    135 H56        -4.9290    2.4110   -1.9900 hn        1 MOL      0.263753
    136 H57        -6.7670    2.7000    0.1600 h1        1 MOL      0.080263
    137 H58        -7.0900    2.1090   -2.8170 hc        1 MOL      0.064234
    138 H59        -7.0760    3.6260   -2.1010 hc        1 MOL      0.064234
    139 H60        -8.9730    4.3160   -0.4070 ha        1 MOL      0.138966
    140 H61        -9.1210    0.7680   -2.9100 ha        1 MOL      0.138966
    141 H62       -11.4610    4.1480   -0.1600 ha        1 MOL      0.140548
    142 H63       -11.5420    0.6400   -2.6410 ha        1 MOL      0.140548
    143 H64       -13.4160    1.6730   -1.7850 ho        1 MOL      0.406647
    144 N13        -6.0200   -0.4040   -0.6110 n         1 MOL     -0.390966
    145 C48        -6.2370   -1.7580   -0.0830 c3        1 MOL      0.184653
    146 C49        -5.3980   -1.9790    1.2330 c         1 MOL      0.221630
    147 O21        -5.6920   -2.9320    1.9600 o         1 MOL     -0.491984
    148 C50        -5.8740   -2.8120   -1.1020 c3        1 MOL     -0.004167
    149 C51        -6.4980   -2.5520   -2.5010 c3        1 MOL     -0.332122
    150 C52        -6.0070   -3.6340   -3.5170 c         1 MOL      0.773938
    151 O22        -6.3150   -4.8300   -3.3300 o         1 MOL     -0.743870
    152 O23        -5.4320   -3.2930   -4.5350 o         1 MOL     -0.743870
    153 H65        -5.1240   -0.2700   -1.0700 hn        1 MOL      0.306985
    154 H66        -7.2860   -1.8380    0.1950 h1        1 MOL      0.077584
    155 H67        -6.1030   -3.7920   -0.6920 hc        1 MOL      0.021690
    156 H68        -4.7930   -2.7490   -1.3020 hc        1 MOL      0.021690
    157 H69        -6.1100   -1.5850   -2.8370 hc        1 MOL      0.054615
    158 H70        -7.5830   -2.6270   -2.4730 hc        1 MOL      0.054615
    159 N14        -4.3510   -1.1510    1.5330 n         1 MOL     -0.056334
    160 C53        -3.5190   -1.1310    2.7760 c3        1 MOL     -0.052231
    161 C54        -4.2550   -0.3290    3.8590 c         1 MOL      0.491357
    162 O24        -4.2790   -0.7720    4.9670 o         1 MOL     -0.565872
    163 C55        -2.1540   -0.6900    2.3470 c3        1 MOL     -0.041742
    164 C56        -1.4010   -1.6560    1.4760 c3        1 MOL      0.247941
    165 C57        -0.0670   -1.0760    0.9130 c         1 MOL      0.547167
    166 O25         0.7740   -1.8440    0.3130 o         1 MOL     -0.676050
    167 O26         0.1450    0.1430    0.8930 o         1 MOL     -0.676050
    168 H71        -4.2000   -0.3840    0.8900 hn        1 MOL     -0.027208
    169 H72        -3.5000   -2.1670    3.1000 h1        1 MOL      0.075402
    170 H73        -1.5860   -0.5680    3.2680 hc        1 MOL      0.028438
    171 H74        -2.2310    0.2410    1.7910 hc        1 MOL      0.028438
    172 H75        -2.0180   -2.0030    0.6520 hc        1 MOL     -0.081606
    173 H76        -1.0530   -2.4670    2.1170 hc        1 MOL     -0.081606
    174 N15        -4.9320    0.7510    3.5110 n         1 MOL     -0.042715
    175 C58        -5.6760    1.5150    4.4790 c3        1 MOL     -0.288524
    176 H77        -6.7230    1.2130    4.4520 h1        1 MOL      0.091602
    177 H78        -5.2720    1.3330    5.4750 h1        1 MOL      0.091602
    178 H79        -5.5980    2.5760    4.2430 h1        1 MOL      0.091602
    179 H80        -4.8970    1.1220    2.5650 hn        1 MOL      0.072387
    180 Ca1         2.7530    0.0060    0.2050 Ca        1 MOL      1.775940
    181 O27         2.3170    0.0940    2.9590 oh        1 MOL     -0.931681
    182 H81         1.5910   -0.3420    3.3970 ho        1 MOL      0.442527
    183 H82         2.3690    0.9590    3.3680 ho        1 MOL      0.442527
    184 O28         1.6370    0.9800   -2.0030 oh        1 MOL     -0.931681
    185 H83         2.1190    1.6600   -2.4760 ho        1 MOL      0.442527
    186 H84         1.6870    0.2160   -2.5750 ho        1 MOL      0.442527
    187 O29         5.1660    0.2870    1.6150 oh        1 MOL     -0.931681
    188 H85         4.7330    0.0790    2.4520 ho        1 MOL      0.442527
    189 H86         6.1000    0.1540    1.8000 ho        1 MOL      0.442527
@<TRIPOS>BOND
     1    1    2 1   
     2    1    4 1   
     3    1    5 1   
     4    1    6 1   
     5    2    3 2   
     6    2    7 1   
     7    7    8 1   
     8    7   15 1   
     9    8    9 1   
    10    8   11 1   
    11    8   16 1   
    12    9   10 2   
    13    9   19 1   
    14   11   12 1   
    15   11   17 1   
    16   11   18 1   
    17   12   13 1   
    18   12   14 1   
    19   19   20 1   
    20   19   27 1   
    21   20   21 1   
    22   20   23 1   
    23   20   28 1   
    24   21   22 2   
    25   21   38 1   
    26   23   24 1   
    27   23   25 1   
    28   23   29 1   
    29   24   26 1   
    30   24   30 1   
    31   24   31 1   
    32   25   32 1   
    33   25   33 1   
    34   25   34 1   
    35   26   35 1   
    36   26   36 1   
    37   26   37 1   
    38   38   39 1   
    39   38   46 1   
    40   39   40 1   
    41   39   42 1   
    42   39   47 1   
    43   40   41 2   
    44   40   50 1   
    45   42   43 1   
    46   42   48 1   
    47   42   49 1   
    48   43   44 1   
    49   43   45 1   
    50   50   51 1   
    51   50   54 1   
    52   51   52 1   
    53   51   55 1   
    54   51   56 1   
    55   52   53 2   
    56   52   57 1   
    57   57   58 1   
    58   57   65 1   
    59   58   59 1   
    60   58   61 1   
    61   58   66 1   
    62   59   60 2   
    63   59   69 1   
    64   61   62 1   
    65   61   67 1   
    66   61   68 1   
    67   62   63 1   
    68   62   64 1   
    69   69   70 1   
    70   69   73 1   
    71   70   71 1   
    72   70   74 1   
    73   70   75 1   
    74   71   72 2   
    75   71   76 1   
    76   76   77 1   
    77   76   85 1   
    78   77   78 1   
    79   77   80 1   
    80   77   86 1   
    81   78   79 2   
    82   78   93 1   
    83   80   81 1   
    84   80   87 1   
    85   80   88 1   
    86   81   82 1   
    87   81   89 1   
    88   81   90 1   
    89   82   83 1   
    90   82   84 2   
    91   83   91 1   
    92   83   92 1   
    93   93   94 1   
    94   93  100 1   
    95   94   95 1   
    96   94   97 1   
    97   94  101 1   
    98   95   96 2   
    99   95  109 1   
   100   97   98 1   
   101   97   99 1   
   102   97  102 1   
   103   98  103 1   
   104   98  104 1   
   105   98  105 1   
   106   99  106 1   
   107   99  107 1   
   108   99  108 1   
   109  109  110 1   
   110  109  117 1   
   111  110  111 1   
   112  110  113 1   
   113  110  118 1   
   114  111  112 2   
   115  111  123 1   
   116  113  114 1   
   117  113  119 1   
   118  113  120 1   
   119  114  115 1   
   120  114  116 2   
   121  115  121 1   
   122  115  122 1   
   123  123  124 1   
   124  123  135 1   
   125  124  125 1   
   126  124  127 1   
   127  124  136 1   
   128  125  126 2   
   129  125  144 1   
   130  127  128 1   
   131  127  137 1   
   132  127  138 1   
   133  128  129 ar  
   134  128  130 ar  
   135  129  131 ar  
   136  129  139 1   
   137  130  132 ar  
   138  130  140 1   
   139  131  133 ar  
   140  131  141 1   
   141  132  133 ar  
   142  132  142 1   
   143  133  134 1   
   144  134  143 1   
   145  144  145 1   
   146  144  153 1   
   147  145  146 1   
   148  145  148 1   
   149  145  154 1   
   150  146  147 2   
   151  146  159 1   
   152  148  149 1   
   153  148  155 1   
   154  148  156 1   
   155  149  150 1   
   156  149  157 1   
   157  149  158 1   
   158  150  151 1   
   159  150  152 1   
   160  159  160 1   
   161  159  168 1   
   162  160  161 1   
   163  160  163 1   
   164  160  169 1   
   165  161  162 2   
   166  161  174 1   
   167  163  164 1   
   168  163  170 1   
   169  163  171 1   
   170  164  165 1   
   171  164  172 1   
   172  164  173 1   
   173  165  166 1   
   174  165  167 1   
   175  174  175 1   
   176  174  179 1   
   177  175  176 1   
   178  175  177 1   
   179  175  178 1   
   180  181  182 1   
   181  181  183 1   
   182  184  185 1   
   183  184  186 1   
   184  187  188 1   
   185  187  189 1   
@<TRIPOS>SUBSTRUCTURE
     1 MOL         1 TEMP              0 ****  ****    0 ROOT
