@<TRIPOS>MOLECULE
MOL
  189   185     1     0     0
SMALL
resp


@<TRIPOS>ATOM
      1 C1          0.0630   -0.0050    6.2020 c3        1 MOL     -0.311661
      2 C2         -0.3940    0.5690    4.8660 c         1 MOL      0.642680
      3 O1          0.4350    1.2370    4.1840 o         1 MOL     -0.594741
      4 H1          0.4060    0.8040    6.8470 hc        1 MOL      0.082815
      5 H2         -0.7690   -0.5210    6.6810 hc        1 MOL      0.082815
      6 H3          0.8800   -0.7070    6.0370 hc        1 MOL      0.082815
      7 N1         -1.6670    0.4020    4.5560 n         1 MOL     -0.446992
      8 C3         -2.2380    0.6760    3.1960 c3        1 MOL      0.096809
      9 C4         -2.4230    2.2090    3.0730 c         1 MOL      0.383280
     10 O2         -3.3370    2.7680    3.6590 o         1 MOL     -0.543141
     11 C5         -3.5770   -0.1030    2.9660 c3        1 MOL     -0.209004
     12 C6         -4.2060    0.3400    1.6540 c         1 MOL      0.767663
     13 O3         -3.4260    0.8140    0.7850 o         1 MOL     -0.694463
     14 O4         -5.3780    0.0250    1.3810 o         1 MOL     -0.694463
     15 H4         -2.2830   -0.0300    5.2290 hn        1 MOL      0.302746
     16 H5         -1.5090    0.3900    2.4390 h1        1 MOL      0.030775
     17 H6         -4.2720    0.0830    3.7840 hc        1 MOL      0.039596
     18 H7         -3.3140   -1.1590    2.8790 hc        1 MOL      0.039596
     19 N2         -1.5410    2.8610    2.3160 n         1 MOL      0.011038
     20 C7         -1.5530    4.3120    2.2390 c3        1 MOL     -0.185874
     21 C8         -2.6650    4.8700    1.3670 c         1 MOL      0.638706
     22 O5         -2.8290    6.0910    1.4500 o         1 MOL     -0.580540
     23 C9         -0.1210    4.7420    2.0150 c3        1 MOL     -0.033443
     24 C10         0.3210    4.5450    0.5540 c3        1 MOL      0.014334
     25 C11         1.8340    4.8100    0.3040 c3        1 MOL      0.027041
     26 C12         2.1770    4.3530   -1.1700 c3        1 MOL      0.254286
     27 N3          3.3010    5.2230   -1.6560 n4        1 MOL     -0.461891
     28 H8         -0.9200    2.3690    1.6910 hn        1 MOL      0.005698
     29 H9         -1.7790    4.6340    3.2560 h1        1 MOL      0.112451
     30 H10         0.5030    4.1990    2.7220 hc        1 MOL      0.044289
     31 H11        -0.0020    5.8020    2.2400 hc        1 MOL      0.044289
     32 H12        -0.2490    5.1790   -0.1230 hc        1 MOL      0.024659
     33 H13         0.1630    3.4980    0.3300 hc        1 MOL      0.024659
     34 H14         2.5140    4.3010    0.9790 hc        1 MOL     -0.015538
     35 H15         2.1000    5.8700    0.3780 hc        1 MOL     -0.015538
     36 H16         1.3070    4.5620   -1.7890 hx        1 MOL      0.006606
     37 H17         2.5210    3.3260   -1.2340 hx        1 MOL      0.006606
     38 H18         4.0950    4.9570   -1.0810 hn        1 MOL      0.334029
     39 H19         3.5780    5.0060   -2.6040 hn        1 MOL      0.334029
     40 H20         3.0720    6.2000   -1.5380 hn        1 MOL      0.334029
     41 N4         -3.4080    4.0910    0.5540 n         1 MOL     -0.603885
     42 C13        -4.3160    4.6590   -0.4250 c3        1 MOL      0.126591
     43 C14        -5.6620    3.7910   -0.6230 c         1 MOL      0.385732
     44 O6         -6.4420    4.0020   -1.5540 o         1 MOL     -0.512668
     45 C15        -3.5800    4.8100   -1.7650 c3        1 MOL     -0.298105
     46 C16        -2.8650    3.5830   -2.3030 c         1 MOL      0.845694
     47 O7         -1.9430    3.6990   -3.1680 o         1 MOL     -0.749569
     48 O8         -3.1030    2.5120   -1.7070 o         1 MOL     -0.749569
     49 H21        -3.0270    3.1910    0.3100 hn        1 MOL      0.389788
     50 H22        -4.6470    5.6630   -0.1410 h1        1 MOL      0.103181
     51 H23        -2.9260    5.6720   -1.6820 hc        1 MOL      0.069905
     52 H24        -4.3170    5.0840   -2.5290 hc        1 MOL      0.069905
     53 N5         -6.0480    2.9720    0.3260 n         1 MOL     -0.204206
     54 C17        -7.3990    2.4800    0.3960 c3        1 MOL     -0.316979
     55 C18        -7.7180    1.3780   -0.6160 c         1 MOL      0.597132
     56 O9         -8.8830    1.0730   -0.8390 o         1 MOL     -0.573632
     57 H25        -5.4000    2.7050    1.0520 hn        1 MOL      0.245277
     58 H26        -8.1500    3.2570    0.2680 h1        1 MOL      0.146339
     59 H27        -7.5380    1.9790    1.3590 h1        1 MOL      0.146339
     60 N6         -6.7280    0.7750   -1.3930 n         1 MOL     -0.265279
     61 C19        -7.0400   -0.3640   -2.2480 c3        1 MOL     -0.085310
     62 C20        -7.2350   -1.7230   -1.4830 c         1 MOL      0.413259
     63 O10        -7.5430   -2.7790   -2.0960 o         1 MOL     -0.518946
     64 C21        -5.9870   -0.6040   -3.3520 c3        1 MOL     -0.158188
     65 C22        -4.5100   -0.5580   -3.0030 c         1 MOL      0.664085
     66 O11        -3.7830    0.1830   -3.6560 o         1 MOL     -0.675291
     67 O12        -4.1080   -1.1050   -2.0180 o         1 MOL     -0.675291
     68 H28        -5.7830    1.0040   -1.1140 hn        1 MOL      0.261956
     69 H29        -7.9520   -0.0850   -2.7730 h1        1 MOL      0.142860
     70 H30        -6.1780    0.1310   -4.1240 hc        1 MOL      0.055366
     71 H31        -6.1840   -1.6020   -3.7400 hc        1 MOL      0.055366
     72 N7         -6.9510   -1.7740   -0.1890 n         1 MOL     -0.231053
     73 C23        -6.9220   -3.0270    0.6230 c3        1 MOL     -0.101494
     74 C24        -5.7580   -3.9830    0.3920 c         1 MOL      0.438264
     75 O13        -5.9330   -5.1910    0.6490 o         1 MOL     -0.551730
     76 H32        -6.7140   -0.9290    0.3170 hn        1 MOL      0.245177
     77 H33        -7.8270   -3.6190    0.5180 h1        1 MOL      0.086556
     78 H34        -6.9010   -2.7900    1.6910 h1        1 MOL      0.086556
     79 N8         -4.6800   -3.4770   -0.0970 n         1 MOL      0.001836
     80 C25        -3.4510   -4.2670   -0.3100 c3        1 MOL     -0.435884
     81 C26        -2.1570   -3.5100   -0.0520 c         1 MOL      0.686807
     82 O14        -2.1370   -2.2820   -0.2710 o         1 MOL     -0.687120
     83 C27        -3.3220   -4.7500   -1.8010 c3        1 MOL      0.538085
     84 C28        -4.5490   -5.6500   -2.1320 c3        1 MOL     -0.379336
     85 O15        -3.4560   -3.6820   -2.6860 oh        1 MOL     -0.647048
     86 H35        -4.6830   -2.4990   -0.3530 hn        1 MOL      0.117697
     87 H36        -3.4750   -5.1230    0.3670 h1        1 MOL      0.134164
     88 H37        -2.4060   -5.3120   -1.9630 h1        1 MOL     -0.032948
     89 H38        -3.7810   -2.9450   -2.1590 ho        1 MOL      0.435587
     90 H39        -5.4000   -4.9710   -2.2520 hc        1 MOL      0.094772
     91 H40        -4.3290   -6.1800   -3.0570 hc        1 MOL      0.094772
     92 H41        -4.7280   -6.3480   -1.3160 hc        1 MOL      0.094772
     93 N9         -1.0710   -4.1390    0.2490 n         1 MOL     -0.545481
     94 C29         0.2230   -3.5490    0.6460 c3        1 MOL      0.121591
     95 C30         1.3200   -3.8830   -0.2710 c         1 MOL      0.422790
     96 O16         1.6960   -5.0850   -0.3820 o         1 MOL     -0.533541
     97 C31         0.4190   -3.8110    2.1640 c3        1 MOL      0.160625
     98 C32        -0.8460   -3.6960    3.0480 c3        1 MOL      0.213826
     99 C33         1.5400   -2.8490    2.7530 c3        1 MOL     -0.459521
    100 C34        -0.7610   -4.3450    4.4540 c3        1 MOL     -0.280185
    101 H42        -1.1620   -5.1330    0.4090 hn        1 MOL      0.301771
    102 H43         0.1070   -2.4620    0.5770 h1        1 MOL      0.076199
    103 H44         0.6660   -4.8700    2.2210 hc        1 MOL     -0.017906
    104 H45        -1.7280   -4.0810    2.5200 hc        1 MOL     -0.036819
    105 H46        -0.9190   -2.6280    3.2450 hc        1 MOL     -0.036819
    106 H47         1.1120   -1.8520    2.7340 hc        1 MOL      0.101296
    107 H48         1.8360   -3.0880    3.7770 hc        1 MOL      0.101296
    108 H49         2.4470   -2.8780    2.1520 hc        1 MOL      0.101296
    109 H50        -0.7930   -5.4200    4.3070 hc        1 MOL      0.060240
    110 H51         0.0980   -4.0420    5.0410 hc        1 MOL      0.060240
    111 H52        -1.6030   -4.0300    5.0740 hc        1 MOL      0.060240
    112 N10         1.9530   -2.8100   -0.8030 n         1 MOL     -0.144553
    113 C35         3.2010   -2.8730   -1.6240 c3        1 MOL     -0.210670
    114 C36         4.4690   -2.9050   -0.7120 c         1 MOL      0.568987
    115 O17         4.3580   -2.8260    0.5130 o         1 MOL     -0.432524
    116 C37         3.2380   -1.6630   -2.4780 c3        1 MOL      0.354508
    117 C38         2.0620   -1.5320   -3.4220 c3        1 MOL     -0.335709
    118 O18         3.2350   -0.4710   -1.7710 oh        1 MOL     -0.656553
    119 H53         1.5030   -1.9150   -0.6730 hn        1 MOL      0.184728
    120 H54         3.1710   -3.7800   -2.2260 h1        1 MOL      0.112095
    121 H55         4.1180   -1.7980   -3.1090 h1        1 MOL      0.014314
    122 H56         2.4000   -0.3090   -1.3290 ho        1 MOL      0.421056
    123 H57         1.8490   -2.4780   -3.9200 hc        1 MOL      0.089938
    124 H58         1.1610   -1.1700   -2.9280 hc        1 MOL      0.089938
    125 H59         2.4140   -0.8530   -4.1990 hc        1 MOL      0.089938
    126 N11         5.7000   -3.0080   -1.2560 n         1 MOL     -0.459087
    127 C39         6.9650   -2.8230   -0.4620 c3        1 MOL     -0.062319
    128 C40         7.2460   -1.3740   -0.0710 c         1 MOL      0.176269
    129 O19         7.9080   -1.0960    0.9230 o         1 MOL     -0.421167
    130 C41         8.2340   -3.3010   -1.1510 c3        1 MOL      0.511708
    131 C42         8.3380   -4.7850   -1.1330 c3        1 MOL     -0.347479
    132 O20         8.3420   -2.8160   -2.4800 oh        1 MOL     -0.642527
    133 H60         5.7930   -3.1550   -2.2460 hn        1 MOL      0.289744
    134 H61         6.8560   -3.2630    0.5260 h1        1 MOL      0.147134
    135 H62         9.0440   -2.9650   -0.5030 h1        1 MOL     -0.018495
    136 H63         9.1020   -2.2250   -2.5710 ho        1 MOL      0.387411
    137 H64         8.4260   -5.1250   -0.0970 hc        1 MOL      0.088559
    138 H65         7.3790   -5.1800   -1.4640 hc        1 MOL      0.088559
    139 H66         9.1790   -5.0330   -1.7770 hc        1 MOL      0.088559
    140 N12         6.7340   -0.4490   -0.8840 n         1 MOL     -0.187804
    141 C43         6.7840    1.0200   -0.5490 c3        1 MOL     -0.033507
    142 C44         6.0990    1.3360    0.8030 c         1 MOL      0.379312
    143 O21         6.6470    2.1100    1.6150 o         1 MOL     -0.515528
    144 C45         6.2420    1.9580   -1.6850 c3        1 MOL     -0.039124
    145 C46         7.2700    2.3050   -2.7590 c3        1 MOL      0.102087
    146 C47         8.2680    3.3380   -2.2770 c3        1 MOL     -0.091782
    147 C48         9.3130    3.4440   -3.4200 c3        1 MOL      0.101485
    148 N13        10.4410    4.3610   -3.1230 n4        1 MOL     -0.237239
    149 H67         6.3940   -0.7550   -1.7830 hn        1 MOL      0.232764
    150 H68         7.8490    1.2380   -0.4340 h1        1 MOL      0.106493
    151 H69         5.9300    2.8810   -1.1960 hc        1 MOL      0.004230
    152 H70         5.4620    1.5560   -2.3220 hc        1 MOL      0.004230
    153 H71         6.7490    2.7590   -3.5940 hc        1 MOL      0.007107
    154 H72         7.7780    1.4030   -3.1180 hc        1 MOL      0.007107
    155 H73         8.7800    2.9950   -1.3780 hc        1 MOL      0.033005
    156 H74         7.8320    4.3150   -2.0560 hc        1 MOL      0.033005
    157 H75         8.7890    3.8800   -4.2710 hx        1 MOL      0.045624
    158 H76         9.6500    2.4270   -3.6230 hx        1 MOL      0.045624
    159 H77        10.8110    4.0310   -2.2420 hn        1 MOL      0.261096
    160 H78        11.0900    4.2630   -3.8840 hn        1 MOL      0.261096
    161 H79        10.2280    5.3380   -2.9590 hn        1 MOL      0.261096
    162 N14         4.9520    0.7080    1.0160 n         1 MOL     -0.052502
    163 C49         4.1430    0.8780    2.2120 c3        1 MOL     -0.242335
    164 C50         4.7140    0.1730    3.4210 c         1 MOL      0.556862
    165 O22         4.4760    0.5980    4.5730 o         1 MOL     -0.535644
    166 C51         2.7890    0.3610    1.8160 c3        1 MOL      0.094027
    167 C52         1.9050    1.3900    1.0520 c3        1 MOL     -0.117209
    168 C53         0.7500    0.7110    0.3030 c         1 MOL      0.825261
    169 O23         0.9870   -0.2480   -0.4620 o         1 MOL     -0.760826
    170 O24        -0.4260    1.2030    0.4790 o         1 MOL     -0.760826
    171 H80         4.7290   -0.0040    0.3330 hn        1 MOL     -0.055560
    172 H81         3.9910    1.9240    2.4890 h1        1 MOL      0.129265
    173 H82         2.3120    0.2200    2.7880 hc        1 MOL      0.061256
    174 H83         2.8290   -0.6130    1.3100 hc        1 MOL      0.061256
    175 H84         2.4790    2.0010    0.3560 hc        1 MOL      0.040274
    176 H85         1.5410    2.1350    1.7700 hc        1 MOL      0.040274
    177 N15         5.5090   -0.9080    3.2420 n         1 MOL     -0.176965
    178 C54         6.2260   -1.5770    4.3090 c3        1 MOL     -0.359664
    179 H86         6.5120   -0.8470    5.0660 h1        1 MOL      0.136484
    180 H87         5.5850   -2.3340    4.7590 h1        1 MOL      0.136484
    181 H88         7.1210   -2.0510    3.9060 h1        1 MOL      0.136484
    182 H89         5.6860   -1.1660    2.2810 hn        1 MOL      0.229650
    183 Ca1        -2.0170    0.1730   -1.3090 Ca        1 MOL      1.790189
    184 O25        -0.2520    1.3840   -2.9540 oh        1 MOL     -0.868251
    185 H90         0.6750    1.6050   -3.0280 ho        1 MOL      0.408763
    186 H91        -0.6890    1.9110   -3.6230 ho        1 MOL      0.408763
    187 O26        -1.1160   -1.5440   -3.4220 oh        1 MOL     -0.868251
    188 H92        -0.7940   -1.4130   -4.3230 ho        1 MOL      0.408763
    189 H93        -1.8960   -2.0850   -3.5320 ho        1 MOL      0.408763
@<TRIPOS>BOND
     1    1    2 1   
     2    1    4 1   
     3    1    5 1   
     4    1    6 1   
     5    2    3 2   
     6    2    7 1   
     7    7    8 1   
     8    7   15 1   
     9    8    9 1   
    10    8   11 1   
    11    8   16 1   
    12    9   10 2   
    13    9   19 1   
    14   11   12 1   
    15   11   17 1   
    16   11   18 1   
    17   12   13 1   
    18   12   14 1   
    19   19   20 1   
    20   19   28 1   
    21   20   21 1   
    22   20   23 1   
    23   20   29 1   
    24   21   22 2   
    25   21   41 1   
    26   23   24 1   
    27   23   30 1   
    28   23   31 1   
    29   24   25 1   
    30   24   32 1   
    31   24   33 1   
    32   25   26 1   
    33   25   34 1   
    34   25   35 1   
    35   26   27 1   
    36   26   36 1   
    37   26   37 1   
    38   27   38 1   
    39   27   39 1   
    40   27   40 1   
    41   41   42 1   
    42   41   49 1   
    43   42   43 1   
    44   42   45 1   
    45   42   50 1   
    46   43   44 2   
    47   43   53 1   
    48   45   46 1   
    49   45   51 1   
    50   45   52 1   
    51   46   47 1   
    52   46   48 1   
    53   53   54 1   
    54   53   57 1   
    55   54   55 1   
    56   54   58 1   
    57   54   59 1   
    58   55   56 2   
    59   55   60 1   
    60   60   61 1   
    61   60   68 1   
    62   61   62 1   
    63   61   64 1   
    64   61   69 1   
    65   62   63 2   
    66   62   72 1   
    67   64   65 1   
    68   64   70 1   
    69   64   71 1   
    70   65   66 1   
    71   65   67 1   
    72   72   73 1   
    73   72   76 1   
    74   73   74 1   
    75   73   77 1   
    76   73   78 1   
    77   74   75 2   
    78   74   79 1   
    79   79   80 1   
    80   79   86 1   
    81   80   81 1   
    82   80   83 1   
    83   80   87 1   
    84   81   82 2   
    85   81   93 1   
    86   83   84 1   
    87   83   85 1   
    88   83   88 1   
    89   84   90 1   
    90   84   91 1   
    91   84   92 1   
    92   85   89 1   
    93   93   94 1   
    94   93  101 1   
    95   94   95 1   
    96   94   97 1   
    97   94  102 1   
    98   95   96 2   
    99   95  112 1   
   100   97   98 1   
   101   97   99 1   
   102   97  103 1   
   103   98  100 1   
   104   98  104 1   
   105   98  105 1   
   106   99  106 1   
   107   99  107 1   
   108   99  108 1   
   109  100  109 1   
   110  100  110 1   
   111  100  111 1   
   112  112  113 1   
   113  112  119 1   
   114  113  114 1   
   115  113  116 1   
   116  113  120 1   
   117  114  115 2   
   118  114  126 1   
   119  116  117 1   
   120  116  118 1   
   121  116  121 1   
   122  117  123 1   
   123  117  124 1   
   124  117  125 1   
   125  118  122 1   
   126  126  127 1   
   127  126  133 1   
   128  127  128 1   
   129  127  130 1   
   130  127  134 1   
   131  128  129 2   
   132  128  140 1   
   133  130  131 1   
   134  130  132 1   
   135  130  135 1   
   136  131  137 1   
   137  131  138 1   
   138  131  139 1   
   139  132  136 1   
   140  140  141 1   
   141  140  149 1   
   142  141  142 1   
   143  141  144 1   
   144  141  150 1   
   145  142  143 2   
   146  142  162 1   
   147  144  145 1   
   148  144  151 1   
   149  144  152 1   
   150  145  146 1   
   151  145  153 1   
   152  145  154 1   
   153  146  147 1   
   154  146  155 1   
   155  146  156 1   
   156  147  148 1   
   157  147  157 1   
   158  147  158 1   
   159  148  159 1   
   160  148  160 1   
   161  148  161 1   
   162  162  163 1   
   163  162  171 1   
   164  163  164 1   
   165  163  166 1   
   166  163  172 1   
   167  164  165 2   
   168  164  177 1   
   169  166  167 1   
   170  166  173 1   
   171  166  174 1   
   172  167  168 1   
   173  167  175 1   
   174  167  176 1   
   175  168  169 1   
   176  168  170 1   
   177  177  178 1   
   178  177  182 1   
   179  178  179 1   
   180  178  180 1   
   181  178  181 1   
   182  184  185 1   
   183  184  186 1   
   184  187  188 1   
   185  187  189 1   
@<TRIPOS>SUBSTRUCTURE
     1 MOL         1 TEMP              0 ****  ****    0 ROOT
