@<TRIPOS>MOLECULE
MOL
  189   185     1     0     0
SMALL
resp


@<TRIPOS>ATOM
      1 C1          0.0200    3.9790   -4.3270 c3        1 MOL     -0.280874
      2 C2          0.6520    3.3190   -3.0370 c         1 MOL      0.523118
      3 O1          0.2120    3.5990   -1.9180 o         1 MOL     -0.554673
      4 H1         -1.0290    3.6920   -4.4050 hc        1 MOL      0.073307
      5 H2          0.0950    5.0640   -4.2550 hc        1 MOL      0.073307
      6 H3          0.5560    3.6340   -5.2120 hc        1 MOL      0.073307
      7 N1          1.6210    2.4390   -3.2270 n         1 MOL     -0.399530
      8 C3          2.3240    1.7910   -2.0720 c3        1 MOL     -0.003896
      9 C4          3.3390    2.7850   -1.3860 c         1 MOL      0.523237
     10 O2          4.5140    2.7160   -1.4700 o         1 MOL     -0.437043
     11 C5          3.0410    0.4980   -2.6120 c3        1 MOL     -0.149345
     12 C6          3.6890   -0.4240   -1.6150 c         1 MOL      0.576648
     13 O3          3.2950   -0.5050   -0.4320 o         1 MOL     -0.673085
     14 O4          4.6370   -1.1620   -1.9700 o         1 MOL     -0.673085
     15 H4          1.9620    2.2390   -4.1570 hn        1 MOL      0.289454
     16 H5          1.5330    1.4720   -1.3910 h1        1 MOL      0.139939
     17 H6          3.7650    0.8150   -3.3700 hc        1 MOL      0.049503
     18 H7          2.2540   -0.0830   -3.1030 hc        1 MOL      0.049503
     19 N2          2.8820    3.8650   -0.7650 n         1 MOL     -0.467266
     20 C7          3.7350    4.8980   -0.0470 c3        1 MOL     -0.098700
     21 C8          4.6220    4.4900    1.1210 c         1 MOL      0.484634
     22 O5          5.6580    5.1010    1.3720 o         1 MOL     -0.545583
     23 C9          2.8180    6.0070    0.4120 c3        1 MOL     -0.104280
     24 C10         2.1150    6.6000   -0.8180 c3        1 MOL      0.169915
     25 C11         1.5390    7.9820   -0.3290 c3        1 MOL     -0.006669
     26 C12         0.9190    8.9580   -1.4520 c3        1 MOL     -0.028918
     27 N3         -0.1330    8.2950   -2.3000 n4        1 MOL     -0.491215
     28 H8          1.8780    4.0110   -0.7960 hn        1 MOL      0.299070
     29 H9          4.4660    5.2930   -0.7520 h1        1 MOL      0.126838
     30 H10         3.4670    6.7490    0.8780 hc        1 MOL      0.063737
     31 H11         2.0930    5.7240    1.1830 hc        1 MOL      0.063737
     32 H12         1.3100    5.9540   -1.1630 hc        1 MOL     -0.032017
     33 H13         2.7960    6.8270   -1.6380 hc        1 MOL     -0.032017
     34 H14         2.2040    8.5340    0.3260 hc        1 MOL      0.028952
     35 H15         0.7340    7.7030    0.3550 hc        1 MOL      0.028952
     36 H16         1.7600    9.3370   -2.0370 hx        1 MOL      0.098921
     37 H17         0.4510    9.8330   -0.9880 hx        1 MOL      0.098921
     38 H18        -0.8050    9.0210   -2.5320 hn        1 MOL      0.371245
     39 H19         0.2780    7.9180   -3.1350 hn        1 MOL      0.371245
     40 H20        -0.6510    7.6190   -1.7650 hn        1 MOL      0.371245
     41 N4          4.2120    3.4360    1.8100 n         1 MOL     -0.395726
     42 C13         4.9210    2.6630    2.8320 c3        1 MOL      0.197843
     43 C14         5.8820    1.5800    2.1620 c         1 MOL      0.300197
     44 O6          6.7580    0.9880    2.8580 o         1 MOL     -0.520135
     45 C15         3.9970    2.1240    3.9370 c3        1 MOL     -0.386910
     46 C16         2.6090    1.6160    3.3550 c         1 MOL      0.788211
     47 O7          1.5390    1.6850    3.9550 o         1 MOL     -0.734177
     48 O8          2.6420    1.2910    2.2070 o         1 MOL     -0.734177
     49 H21         3.3970    2.9240    1.5040 hn        1 MOL      0.362806
     50 H22         5.5500    3.3720    3.3680 h1        1 MOL      0.083232
     51 H23         3.8920    2.9560    4.6400 hc        1 MOL      0.095158
     52 H24         4.4030    1.3200    4.5510 hc        1 MOL      0.095158
     53 N5          5.8170    1.4730    0.8330 n         1 MOL      0.001613
     54 C17         6.7460    0.8610   -0.1380 c3        1 MOL     -0.185012
     55 C18         7.0820   -0.6040    0.0810 c         1 MOL      0.568810
     56 O9          8.2310   -1.0560   -0.1000 o         1 MOL     -0.586042
     57 H25         4.9540    1.8290    0.4390 hn        1 MOL      0.007441
     58 H26         7.7300    1.3380   -0.1430 h1        1 MOL      0.094571
     59 H27         6.3070    0.8880   -1.1310 h1        1 MOL      0.094571
     60 N6          6.1020   -1.3780    0.6870 n         1 MOL     -0.132178
     61 C19         6.3800   -2.7010    1.1140 c3        1 MOL     -0.379091
     62 C20         6.1490   -3.8860    0.1790 c         1 MOL      0.548602
     63 O10         6.2980   -5.0380    0.6070 o         1 MOL     -0.534057
     64 C21         5.4740   -2.8550    2.4240 c3        1 MOL     -0.003124
     65 C22         3.9990   -2.4260    2.3380 c         1 MOL      0.598276
     66 O11         3.3750   -2.8660    1.3750 o         1 MOL     -0.724008
     67 O12         3.5070   -1.4790    3.0320 o         1 MOL     -0.724008
     68 H28         5.1400   -1.0970    0.5950 hn        1 MOL      0.245418
     69 H29         7.3970   -2.7310    1.4950 h1        1 MOL      0.199556
     70 H30         5.9010   -2.2480    3.2240 hc        1 MOL      0.032753
     71 H31         5.6080   -3.8280    2.8960 hc        1 MOL      0.032753
     72 N7          5.9450   -3.5240   -1.1130 n         1 MOL     -0.325500
     73 C23         5.6360   -4.4030   -2.3220 c3        1 MOL     -0.157741
     74 C24         4.1340   -4.5880   -2.5830 c         1 MOL      0.573221
     75 O13         3.7390   -5.4350   -3.4370 o         1 MOL     -0.592213
     76 H32         5.8570   -2.5340   -1.2900 hn        1 MOL      0.275081
     77 H33         6.0680   -5.3910   -2.1760 h1        1 MOL      0.110703
     78 H34         6.0330   -3.9060   -3.2160 h1        1 MOL      0.110703
     79 N8          3.2250   -3.9170   -1.8780 n         1 MOL     -0.339193
     80 C25         1.7880   -4.3750   -1.7890 c3        1 MOL     -0.226625
     81 C26         0.8340   -3.1670   -1.6120 c         1 MOL      0.676859
     82 O14         1.0170   -2.3670   -0.6800 o         1 MOL     -0.608624
     83 C27         1.5450   -5.4260   -0.7140 c3        1 MOL      0.602161
     84 C28         1.6140   -6.8210   -1.3350 c3        1 MOL     -0.218524
     85 O15         2.5110   -5.2450    0.3460 oh        1 MOL     -0.733028
     86 H35         3.4710   -3.1890   -1.2130 hn        1 MOL      0.371136
     87 H36         1.4530   -4.6370   -2.7880 h1        1 MOL      0.072189
     88 H37         0.5380   -5.3370   -0.3030 h1        1 MOL     -0.105136
     89 H38         2.6810   -4.3130    0.5130 ho        1 MOL      0.500590
     90 H39         2.3410   -6.9670   -2.1390 hc        1 MOL      0.047322
     91 H40         1.6770   -7.5750   -0.5520 hc        1 MOL      0.047322
     92 H41         0.6510   -7.0340   -1.7890 hc        1 MOL      0.047322
     93 N9         -0.2460   -3.1530   -2.4320 n         1 MOL     -0.698773
     94 C29        -1.2790   -2.1070   -2.4270 c3        1 MOL      0.213363
     95 C30        -2.5390   -2.6790   -1.7670 c         1 MOL      0.472485
     96 O16        -3.3180   -3.3870   -2.4250 o         1 MOL     -0.537743
     97 C31        -1.4960   -1.5270   -3.8640 c3        1 MOL      0.083273
     98 C32        -0.1990   -0.9930   -4.4670 c3        1 MOL      0.288068
     99 C33        -2.5860   -0.3920   -3.8240 c3        1 MOL     -0.375436
    100 C34        -0.2600   -0.6270   -5.9080 c3        1 MOL     -0.228747
    101 H42        -0.4020   -3.9470   -3.0320 hn        1 MOL      0.354450
    102 H43        -0.8970   -1.4200   -1.6690 h1        1 MOL     -0.012055
    103 H44        -1.8010   -2.3920   -4.4510 hc        1 MOL      0.004308
    104 H45         0.5610   -1.7750   -4.4050 hc        1 MOL     -0.039276
    105 H46         0.1020   -0.0720   -3.9580 hc        1 MOL     -0.039276
    106 H47        -2.1300    0.5040   -3.4180 hc        1 MOL      0.079635
    107 H48        -2.9470   -0.1800   -4.8300 hc        1 MOL      0.079635
    108 H49        -3.4530   -0.5760   -3.1900 hc        1 MOL      0.079635
    109 H50        -1.0010    0.1560   -6.0210 hc        1 MOL      0.043541
    110 H51         0.7350   -0.2590   -6.1790 hc        1 MOL      0.043541
    111 H52        -0.4180   -1.5020   -6.5390 hc        1 MOL      0.043541
    112 N10        -2.7620   -2.5050   -0.4700 n         1 MOL     -0.377444
    113 C35        -3.9950   -2.8370    0.2530 c3        1 MOL     -0.019877
    114 C36        -5.2220   -2.0440   -0.2060 c         1 MOL      0.405546
    115 O17        -5.0320   -0.9740   -0.7400 o         1 MOL     -0.367731
    116 C37        -3.8720   -2.7900    1.7750 c3        1 MOL      0.205646
    117 C38        -3.0860   -3.8500    2.4820 c3        1 MOL     -0.346487
    118 O18        -3.4540   -1.5060    2.1820 oh        1 MOL     -0.669893
    119 H53        -1.9810   -2.1080    0.0360 hn        1 MOL      0.342858
    120 H54        -4.2020   -3.8970    0.0950 h1        1 MOL      0.086946
    121 H55        -4.8720   -2.8630    2.2010 h1        1 MOL      0.040088
    122 H56        -2.7360   -1.2180    1.6080 ho        1 MOL      0.436672
    123 H57        -2.9150   -3.7510    3.5550 hc        1 MOL      0.102774
    124 H58        -3.6060   -4.8050    2.4550 hc        1 MOL      0.102774
    125 H59        -2.0890   -3.9010    2.0400 hc        1 MOL      0.102774
    126 N11        -6.4240   -2.5080    0.0170 n         1 MOL     -0.271711
    127 C39        -7.5960   -1.7920   -0.5280 c3        1 MOL      0.004100
    128 C40        -7.5710   -0.2970    0.0160 c         1 MOL      0.152214
    129 O19        -7.9900    0.6130   -0.7000 o         1 MOL     -0.449357
    130 C41        -8.9610   -2.4440   -0.1330 c3        1 MOL      0.536890
    131 C42        -9.9790   -2.1840   -1.2380 c3        1 MOL     -0.375368
    132 O20        -8.9040   -3.8190    0.0870 oh        1 MOL     -0.626912
    133 H60        -6.5820   -3.4030    0.4500 hn        1 MOL      0.200697
    134 H61        -7.4110   -1.7260   -1.5990 h1        1 MOL      0.115547
    135 H62        -9.2940   -2.0320    0.8260 h1        1 MOL     -0.066652
    136 H63        -9.5730   -3.9490    0.7620 ho        1 MOL      0.382648
    137 H64       -10.9070   -2.7550   -1.1090 hc        1 MOL      0.095941
    138 H65       -10.2720   -1.1350   -1.1450 hc        1 MOL      0.095941
    139 H66        -9.5530   -2.3450   -2.2270 hc        1 MOL      0.095941
    140 N12        -7.1050   -0.0170    1.2490 n         1 MOL     -0.104380
    141 C43        -7.0370    1.3890    1.8200 c3        1 MOL      0.038111
    142 C44        -6.1230    2.2690    1.0600 c         1 MOL      0.367681
    143 O21        -6.2960    3.4850    1.1290 o         1 MOL     -0.520683
    144 C45        -6.8140    1.2630    3.3570 c3        1 MOL     -0.465150
    145 C46        -5.3960    0.7360    3.6130 c3        1 MOL      0.374625
    146 C47        -4.9950    0.6770    5.0960 c3        1 MOL     -0.057933
    147 C48        -3.5490    0.3950    5.3090 c3        1 MOL     -0.086312
    148 N13        -3.0450   -0.9070    4.8500 n4        1 MOL     -0.287499
    149 H67        -6.8360   -0.8050    1.8140 hn        1 MOL      0.111578
    150 H68        -8.0250    1.8280    1.6760 h1        1 MOL      0.120733
    151 H69        -7.5060    0.4880    3.7060 hc        1 MOL      0.131789
    152 H70        -6.9820    2.2790    3.7180 hc        1 MOL      0.131789
    153 H71        -4.6740    1.4060    3.1310 hc        1 MOL     -0.049533
    154 H72        -5.3030   -0.2720    3.2100 hc        1 MOL     -0.049533
    155 H73        -5.6480   -0.0350    5.5940 hc        1 MOL      0.035469
    156 H74        -5.1680    1.6950    5.4360 hc        1 MOL      0.035469
    157 H75        -3.5000    0.5070    6.3890 hx        1 MOL      0.100033
    158 H76        -2.9650    1.1350    4.7560 hx        1 MOL      0.100033
    159 H77        -2.1280   -0.7760    4.4530 hn        1 MOL      0.301002
    160 H78        -2.9940   -1.6630    5.5110 hn        1 MOL      0.301002
    161 H79        -3.5170   -1.1810    3.9970 hn        1 MOL      0.301002
    162 N14        -5.0540    1.7970    0.4570 n         1 MOL      0.044720
    163 C49        -4.0740    2.6980   -0.2520 c3        1 MOL     -0.315810
    164 C50        -4.5610    3.1380   -1.6030 c         1 MOL      0.577889
    165 O22        -4.4370    4.2880   -1.9980 o         1 MOL     -0.576708
    166 C51        -2.6960    1.9460   -0.3910 c3        1 MOL      0.150890
    167 C52        -2.1110    1.5590    0.9740 c3        1 MOL     -0.237541
    168 C53        -0.9640    0.5960    0.8680 c         1 MOL      0.856941
    169 O23        -1.2190   -0.6280    1.0510 o         1 MOL     -0.781692
    170 O24         0.1640    1.0160    0.6160 o         1 MOL     -0.781692
    171 H80        -4.8620    0.8040    0.4990 hn        1 MOL      0.043503
    172 H81        -3.8790    3.5970    0.3410 h1        1 MOL      0.140855
    173 H82        -1.9790    2.5740   -0.9220 hc        1 MOL      0.012550
    174 H83        -2.8500    1.0160   -0.9460 hc        1 MOL      0.012550
    175 H84        -2.7590    1.0040    1.6530 hc        1 MOL      0.060076
    176 H85        -1.8360    2.4490    1.5330 hc        1 MOL      0.060076
    177 N15        -5.1330    2.2160   -2.3630 n         1 MOL     -0.236506
    178 C54        -5.9450    2.5080   -3.5090 c3        1 MOL     -0.161858
    179 H86        -6.9460    2.1050   -3.3570 h1        1 MOL      0.085419
    180 H87        -6.0050    3.5880   -3.6460 h1        1 MOL      0.085419
    181 H88        -5.5010    2.0520   -4.3940 h1        1 MOL      0.085419
    182 H89        -5.0630    1.2900   -1.9580 hn        1 MOL      0.229773
    183 Ca1         1.5320   -0.9920    1.4350 Ca        1 MOL      1.742169
    184 O25         0.4520   -3.2290    2.2660 oh        1 MOL     -0.856363
    185 H90         0.9280   -3.3100    3.0920 ho        1 MOL      0.397844
    186 H91        -0.1610   -3.9670    2.2630 ho        1 MOL      0.397844
    187 O26         0.1720   -0.6770    3.9230 oh        1 MOL     -0.856363
    188 H92         0.7770    0.0650    3.9370 ho        1 MOL      0.397844
    189 H93         0.1570   -0.9810    4.8330 ho        1 MOL      0.397844
@<TRIPOS>BOND
     1    1    2 1   
     2    1    4 1   
     3    1    5 1   
     4    1    6 1   
     5    2    3 2   
     6    2    7 1   
     7    7    8 1   
     8    7   15 1   
     9    8    9 1   
    10    8   11 1   
    11    8   16 1   
    12    9   10 2   
    13    9   19 1   
    14   11   12 1   
    15   11   17 1   
    16   11   18 1   
    17   12   13 1   
    18   12   14 1   
    19   19   20 1   
    20   19   28 1   
    21   20   21 1   
    22   20   23 1   
    23   20   29 1   
    24   21   22 2   
    25   21   41 1   
    26   23   24 1   
    27   23   30 1   
    28   23   31 1   
    29   24   25 1   
    30   24   32 1   
    31   24   33 1   
    32   25   26 1   
    33   25   34 1   
    34   25   35 1   
    35   26   27 1   
    36   26   36 1   
    37   26   37 1   
    38   27   38 1   
    39   27   39 1   
    40   27   40 1   
    41   41   42 1   
    42   41   49 1   
    43   42   43 1   
    44   42   45 1   
    45   42   50 1   
    46   43   44 2   
    47   43   53 1   
    48   45   46 1   
    49   45   51 1   
    50   45   52 1   
    51   46   47 1   
    52   46   48 1   
    53   53   54 1   
    54   53   57 1   
    55   54   55 1   
    56   54   58 1   
    57   54   59 1   
    58   55   56 2   
    59   55   60 1   
    60   60   61 1   
    61   60   68 1   
    62   61   62 1   
    63   61   64 1   
    64   61   69 1   
    65   62   63 2   
    66   62   72 1   
    67   64   65 1   
    68   64   70 1   
    69   64   71 1   
    70   65   66 1   
    71   65   67 1   
    72   72   73 1   
    73   72   76 1   
    74   73   74 1   
    75   73   77 1   
    76   73   78 1   
    77   74   75 2   
    78   74   79 1   
    79   79   80 1   
    80   79   86 1   
    81   80   81 1   
    82   80   83 1   
    83   80   87 1   
    84   81   82 2   
    85   81   93 1   
    86   83   84 1   
    87   83   85 1   
    88   83   88 1   
    89   84   90 1   
    90   84   91 1   
    91   84   92 1   
    92   85   89 1   
    93   93   94 1   
    94   93  101 1   
    95   94   95 1   
    96   94   97 1   
    97   94  102 1   
    98   95   96 2   
    99   95  112 1   
   100   97   98 1   
   101   97   99 1   
   102   97  103 1   
   103   98  100 1   
   104   98  104 1   
   105   98  105 1   
   106   99  106 1   
   107   99  107 1   
   108   99  108 1   
   109  100  109 1   
   110  100  110 1   
   111  100  111 1   
   112  112  113 1   
   113  112  119 1   
   114  113  114 1   
   115  113  116 1   
   116  113  120 1   
   117  114  115 2   
   118  114  126 1   
   119  116  117 1   
   120  116  118 1   
   121  116  121 1   
   122  117  123 1   
   123  117  124 1   
   124  117  125 1   
   125  118  122 1   
   126  126  127 1   
   127  126  133 1   
   128  127  128 1   
   129  127  130 1   
   130  127  134 1   
   131  128  129 2   
   132  128  140 1   
   133  130  131 1   
   134  130  132 1   
   135  130  135 1   
   136  131  137 1   
   137  131  138 1   
   138  131  139 1   
   139  132  136 1   
   140  140  141 1   
   141  140  149 1   
   142  141  142 1   
   143  141  144 1   
   144  141  150 1   
   145  142  143 2   
   146  142  162 1   
   147  144  145 1   
   148  144  151 1   
   149  144  152 1   
   150  145  146 1   
   151  145  153 1   
   152  145  154 1   
   153  146  147 1   
   154  146  155 1   
   155  146  156 1   
   156  147  148 1   
   157  147  157 1   
   158  147  158 1   
   159  148  159 1   
   160  148  160 1   
   161  148  161 1   
   162  162  163 1   
   163  162  171 1   
   164  163  164 1   
   165  163  166 1   
   166  163  172 1   
   167  164  165 2   
   168  164  177 1   
   169  166  167 1   
   170  166  173 1   
   171  166  174 1   
   172  167  168 1   
   173  167  175 1   
   174  167  176 1   
   175  168  169 1   
   176  168  170 1   
   177  177  178 1   
   178  177  182 1   
   179  178  179 1   
   180  178  180 1   
   181  178  181 1   
   182  184  185 1   
   183  184  186 1   
   184  187  188 1   
   185  187  189 1   
@<TRIPOS>SUBSTRUCTURE
     1 MOL         1 TEMP              0 ****  ****    0 ROOT
