@<TRIPOS>MOLECULE
MOL
  183   181     1     0     0
SMALL
resp


@<TRIPOS>ATOM
      1 C1         -0.7880   -2.4690   -6.0850 c3        1 MOL     -0.197944
      2 C2         -1.0480   -2.3160   -4.5710 c         1 MOL      0.797111
      3 O1         -0.3080   -2.8460   -3.7530 o         1 MOL     -0.628060
      4 H1         -1.5740   -3.0800   -6.5290 hc        1 MOL      0.040380
      5 H2         -0.7850   -1.4860   -6.5560 hc        1 MOL      0.040380
      6 H3          0.1770   -2.9510   -6.2420 hc        1 MOL      0.040380
      7 N1         -2.1650   -1.7470   -4.1070 n         1 MOL     -0.599895
      8 C3         -2.6060   -1.6990   -2.7320 c3        1 MOL      0.166535
      9 C4         -3.1300   -2.9970   -2.3030 c         1 MOL      0.463556
     10 O2         -3.8790   -3.6460   -3.0510 o         1 MOL     -0.599973
     11 C5         -3.7070   -0.5900   -2.6190 c3        1 MOL     -0.013313
     12 C6         -4.3910   -0.5490   -1.2350 c         1 MOL      0.597733
     13 O3         -5.5890   -0.2320   -1.2030 o         1 MOL     -0.594779
     14 O4         -3.7300   -0.9190   -0.2330 o         1 MOL     -0.594779
     15 H4         -2.8090   -1.3460   -4.7770 hn        1 MOL      0.280099
     16 H5         -1.7280   -1.4180   -2.1540 h1        1 MOL      0.003580
     17 H6         -4.4950   -0.6900   -3.3620 hc        1 MOL     -0.020410
     18 H7         -3.2470    0.3570   -2.8940 hc        1 MOL     -0.020410
     19 N2         -2.7210   -3.4670   -1.1440 n         1 MOL     -0.086492
     20 C7         -2.8940   -4.9170   -0.7040 c3        1 MOL     -0.066532
     21 C8         -3.9900   -4.9770    0.4310 c         1 MOL      0.428982
     22 O5         -4.7280   -5.9320    0.5540 o         1 MOL     -0.560667
     23 C9         -1.5070   -5.4550   -0.2830 c3        1 MOL      0.205556
     24 C10        -0.4260   -5.3270   -1.3770 c3        1 MOL      0.090624
     25 C11        -1.6670   -6.9140    0.2010 c3        1 MOL     -0.298145
     26 C12         1.0120   -5.8110   -0.9630 c3        1 MOL     -0.191828
     27 H8         -2.0910   -2.8680   -0.6270 hn        1 MOL      0.090615
     28 H9         -3.2580   -5.4810   -1.5560 h1        1 MOL      0.081306
     29 H10        -1.1330   -4.8960    0.5700 hc        1 MOL      0.013033
     30 H11        -0.3990   -4.2890   -1.6960 hc        1 MOL     -0.019356
     31 H12        -0.8460   -5.7890   -2.2710 hc        1 MOL     -0.019356
     32 H13        -2.0810   -7.6120   -0.5370 hc        1 MOL      0.052859
     33 H14        -0.6740   -7.2040    0.5420 hc        1 MOL      0.052859
     34 H15        -2.3640   -6.9540    1.0410 hc        1 MOL      0.052859
     35 H16         1.0260   -6.9060   -0.9170 hc        1 MOL      0.039746
     36 H17         1.8400   -5.5510   -1.6120 hc        1 MOL      0.039746
     37 H18         1.2450   -5.3650   -0.0010 hc        1 MOL      0.039746
     38 N3         -4.1380   -3.9760    1.2800 n         1 MOL     -0.179772
     39 C13        -5.0060   -3.9540    2.4530 c3        1 MOL      0.062085
     40 C14        -6.3860   -3.3620    2.0120 c         1 MOL      0.484165
     41 O6         -7.3940   -3.9180    2.2930 o         1 MOL     -0.581833
     42 C15        -4.4800   -3.0980    3.6280 c3        1 MOL     -0.282650
     43 C16        -3.8010   -1.7940    3.2420 c         1 MOL      0.821726
     44 O7         -4.3550   -0.7570    2.7870 o         1 MOL     -0.763469
     45 O8         -2.5300   -1.7120    3.3370 o         1 MOL     -0.763469
     46 H19        -3.6830   -3.1480    0.9320 hn        1 MOL      0.113570
     47 H20        -5.0420   -5.0010    2.7280 h1        1 MOL      0.084446
     48 H21        -3.8190   -3.7320    4.2210 hc        1 MOL      0.063332
     49 H22        -5.3690   -2.8730    4.2080 hc        1 MOL      0.063332
     50 N4         -6.3800   -2.2640    1.2330 n         1 MOL     -0.060961
     51 C17        -7.6290   -1.5430    0.7250 c3        1 MOL     -0.259641
     52 C18        -7.8970   -0.0890    1.0670 c         1 MOL      0.585827
     53 O9         -8.9140    0.4820    0.6180 o         1 MOL     -0.604144
     54 H23        -5.5140   -1.7570    1.0750 hn        1 MOL     -0.011781
     55 H24        -8.4700   -2.0890    1.1500 h1        1 MOL      0.118101
     56 H25        -7.7070   -1.6060   -0.3640 h1        1 MOL      0.118101
     57 N5         -6.9950    0.6060    1.7710 n         1 MOL     -0.515385
     58 C19        -7.1000    2.0820    1.9010 c3        1 MOL      0.176883
     59 C20        -7.1650    2.7810    0.5680 c         1 MOL      0.430384
     60 O10        -7.7980    3.8540    0.5870 o         1 MOL     -0.613256
     61 C21        -5.9600    2.6100    2.7290 c3        1 MOL     -0.246060
     62 C22        -4.5510    2.2660    2.2840 c         1 MOL      0.559475
     63 O11        -4.2980    2.1100    1.0690 o         1 MOL     -0.658907
     64 O12        -3.6530    2.0280    3.1180 o         1 MOL     -0.658907
     65 H26        -6.1000    0.2200    2.0620 hn        1 MOL      0.341953
     66 H27        -8.0140    2.2970    2.4690 h1        1 MOL      0.050095
     67 H28        -6.0480    2.2850    3.7640 hc        1 MOL      0.067751
     68 H29        -6.1370    3.6930    2.7540 hc        1 MOL      0.067751
     69 N6         -6.7620    2.2180   -0.5360 n         1 MOL     -0.028556
     70 C23        -6.7080    2.7890   -1.9030 c3        1 MOL     -0.043404
     71 C24        -5.3950    3.5010   -2.2700 c         1 MOL      0.518078
     72 O13        -5.3220    4.3090   -3.2120 o         1 MOL     -0.594881
     73 H30        -6.3810    1.2840   -0.4250 hn        1 MOL      0.195494
     74 H31        -7.5670    3.4470   -2.0170 h1        1 MOL      0.039556
     75 H32        -6.8240    1.9380   -2.5730 h1        1 MOL      0.039556
     76 N7         -4.3350    3.3800   -1.4490 n         1 MOL     -0.118324
     77 C25        -3.0300    4.0270   -1.7460 c3        1 MOL      0.112960
     78 C26        -1.9330    2.9980   -1.5240 c         1 MOL      0.665562
     79 O14        -1.9330    2.0530   -0.7150 o         1 MOL     -0.706220
     80 C27        -2.8010    5.3350   -0.9440 c3        1 MOL     -0.503911
     81 C28        -3.3300    5.3010    0.5250 c3        1 MOL      0.020668
     82 C29        -3.2370    6.6640    1.2800 c         1 MOL      0.583840
     83 N8         -3.1310    6.7690    2.5790 n         1 MOL     -0.732690
     84 O15        -3.4500    7.7020    0.6430 o         1 MOL     -0.573216
     85 H33        -4.4010    2.7990   -0.6190 hn        1 MOL     -0.027847
     86 H34        -3.0040    4.2660   -2.8120 h1        1 MOL      0.011884
     87 H35        -3.4850    5.9830   -1.4770 hc        1 MOL      0.150963
     88 H36        -1.7660    5.6770   -0.9730 hc        1 MOL      0.150963
     89 H37        -2.6670    4.6020    1.0250 hc        1 MOL      0.067190
     90 H38        -4.3390    4.9040    0.4850 hc        1 MOL      0.067190
     91 H39        -2.8570    5.9600    3.1260 hn        1 MOL      0.340867
     92 H40        -3.1450    7.6790    3.0100 hn        1 MOL      0.340867
     93 N9         -0.9300    3.2120   -2.3850 n         1 MOL     -0.425744
     94 C30         0.2250    2.3860   -2.4180 c3        1 MOL     -0.018258
     95 C31         1.4930    2.7760   -1.6440 c         1 MOL      0.451286
     96 O16         2.1360    3.7420   -2.0300 o         1 MOL     -0.570874
     97 C32         0.5410    2.0840   -3.9040 c3        1 MOL      0.241788
     98 C33         1.7860    1.2220   -4.1600 c3        1 MOL     -0.334361
     99 C34        -0.5700    1.3280   -4.6300 c3        1 MOL     -0.334361
    100 H41        -0.9610    3.9800   -3.0490 hn        1 MOL      0.258804
    101 H42        -0.1280    1.4340   -2.0360 h1        1 MOL      0.165932
    102 H43         0.8580    3.0420   -4.3340 hc        1 MOL     -0.015147
    103 H44         1.6330    0.2180   -3.7790 hc        1 MOL      0.069715
    104 H45         1.8930    1.2800   -5.2440 hc        1 MOL      0.069715
    105 H46         2.6010    1.7550   -3.6680 hc        1 MOL      0.069715
    106 H47        -0.5660    0.2890   -4.2920 hc        1 MOL      0.069715
    107 H48        -1.5140    1.7580   -4.2990 hc        1 MOL      0.069715
    108 H49        -0.5420    1.3860   -5.7180 hc        1 MOL      0.069715
    109 N10         1.7610    2.0370   -0.6200 n         1 MOL     -0.231836
    110 C35         2.9140    2.2470    0.2590 c3        1 MOL      0.124999
    111 C36         4.1800    1.7320   -0.4420 c         1 MOL      0.435822
    112 O17         4.2050    0.8530   -1.2640 o         1 MOL     -0.428166
    113 C37         2.7420    1.7120    1.7100 c3        1 MOL     -0.291534
    114 C38         3.8500    2.2360    2.5910 c         1 MOL      0.662626
    115 N11         4.0460    3.5180    2.7820 n         1 MOL     -0.855538
    116 O18         4.5100    1.5350    3.3630 o         1 MOL     -0.473470
    117 H50         1.1170    1.3080   -0.3400 hn        1 MOL      0.216936
    118 H51         3.0910    3.3190    0.2960 h1        1 MOL     -0.012059
    119 H52         2.7320    0.6260    1.8100 hc        1 MOL      0.100861
    120 H53         1.7260    1.9490    2.0230 hc        1 MOL      0.100861
    121 H54         3.6530    4.2320    2.1760 hn        1 MOL      0.379440
    122 H55         4.3730    3.7620    3.7130 hn        1 MOL      0.379440
    123 N12         5.3440    2.0780    0.1030 n         1 MOL     -0.379941
    124 C39         6.7520    1.6140   -0.2000 c3        1 MOL      0.185597
    125 C40         6.8360    0.0720    0.0820 c         1 MOL      0.660797
    126 O19         7.2600   -0.6710   -0.7570 o         1 MOL     -0.558289
    127 C41         7.8000    2.3390    0.6240 c3        1 MOL     -0.317663
    128 C42         9.2170    1.9730    0.2090 ca        1 MOL      0.115154
    129 C43         9.7180    2.5020   -1.0260 ca        1 MOL     -0.210717
    130 C44        10.0450    1.3350    1.1460 ca        1 MOL     -0.210717
    131 C45        11.0260    2.1620   -1.3780 ca        1 MOL     -0.215777
    132 C46        11.3720    1.0450    0.8390 ca        1 MOL     -0.215777
    133 C47        11.8470    1.4350   -0.4710 ca        1 MOL      0.308093
    134 O20        13.1630    1.1890   -0.8640 oh        1 MOL     -0.542663
    135 H56         5.3370    2.9380    0.6280 hn        1 MOL      0.200393
    136 H57         6.9520    1.7970   -1.2560 h1        1 MOL      0.040840
    137 H58         7.7230    2.0160    1.6680 hc        1 MOL      0.105547
    138 H59         7.6630    3.4200    0.5190 hc        1 MOL      0.105547
    139 H60         9.1880    3.1780   -1.6800 ha        1 MOL      0.165968
    140 H61         9.6600    1.0050    2.0980 ha        1 MOL      0.165968
    141 H62        11.3560    2.4890   -2.3520 ha        1 MOL      0.140412
    142 H63        12.1070    0.5930    1.4870 ha        1 MOL      0.140412
    143 H64        13.7670    0.9400   -0.1630 ho        1 MOL      0.380808
    144 N13         6.2840   -0.4150    1.1890 n         1 MOL     -0.464452
    145 C48         6.1090   -1.8850    1.4850 c3        1 MOL      0.051382
    146 C49         5.2340   -2.6100    0.4630 c         1 MOL      0.297934
    147 O21         5.2650   -3.8330    0.3180 o         1 MOL     -0.503618
    148 C50         5.5560   -2.0330    2.9510 c3        1 MOL      0.046929
    149 C51         6.5250   -1.6550    4.0620 c3        1 MOL     -0.267929
    150 C52         5.9630   -1.8980    5.4900 c         1 MOL      0.806792
    151 O22         5.8380   -0.9720    6.2200 o         1 MOL     -0.757600
    152 O23         5.7170   -3.0620    5.8720 o         1 MOL     -0.757600
    153 H65         5.9130    0.2520    1.8480 hn        1 MOL      0.210231
    154 H66         7.0700   -2.3940    1.4850 h1        1 MOL      0.091696
    155 H67         5.1800   -3.0450    3.1080 hc        1 MOL      0.019215
    156 H68         4.7550   -1.3220    3.1100 hc        1 MOL      0.019215
    157 H69         6.8970   -0.6430    3.9330 hc        1 MOL      0.015879
    158 H70         7.4020   -2.2670    3.8790 hc        1 MOL      0.015879
    159 N14         4.3240   -1.8630   -0.2060 n         1 MOL     -0.033030
    160 C53         3.5210   -2.4380   -1.2820 c3        1 MOL     -0.331776
    161 C54         4.0750   -2.2710   -2.6830 c         1 MOL      0.511089
    162 O24         3.6480   -2.8750   -3.6430 o         1 MOL     -0.548282
    163 C55         2.1110   -1.8650   -1.1490 c3        1 MOL      0.576875
    164 C56         1.3640   -2.0630    0.1470 c3        1 MOL      0.058236
    165 C57         0.1190   -1.2900    0.3170 c         1 MOL      0.656303
    166 O25        -0.9230   -1.8500    0.6650 o         1 MOL     -0.732614
    167 O26         0.0890   -0.0580    0.2270 o         1 MOL     -0.732614
    168 H71         4.4110   -0.8570   -0.1670 hn        1 MOL      0.091488
    169 H72         3.4420   -3.5290   -1.1980 h1        1 MOL      0.151552
    170 H73         1.4730   -2.2820   -1.9230 hc        1 MOL     -0.122127
    171 H74         2.0830   -0.7920   -1.3470 hc        1 MOL     -0.122127
    172 H75         2.0920   -1.7270    0.8830 hc        1 MOL     -0.067053
    173 H76         1.2440   -3.1550    0.2030 hc        1 MOL     -0.067053
    174 N15         5.1780   -1.4700   -2.7420 n         1 MOL     -0.112346
    175 C58         5.9410   -1.0990   -3.9210 c3        1 MOL     -0.244723
    176 H77         5.4580   -1.5070   -4.8090 h1        1 MOL      0.086171
    177 H78         5.9850   -0.0120   -3.9990 h1        1 MOL      0.086171
    178 H79         6.9520   -1.4980   -3.8410 h1        1 MOL      0.086171
    179 H80         5.4130   -0.9260   -1.9300 hn        1 MOL      0.104825
    180 Ca1        -2.2840    0.3030    1.4450 Ca        1 MOL      1.809634
    181 O27        -0.9160    1.3200    3.3490 oh        1 MOL     -0.900679
    182 H81        -1.2880    1.6270    4.1780 ho        1 MOL      0.435574
    183 H82        -0.0350    1.0060    3.5960 ho        1 MOL      0.435574
@<TRIPOS>BOND
     1    1    2 1   
     2    1    4 1   
     3    1    5 1   
     4    1    6 1   
     5    2    3 2   
     6    2    7 1   
     7    7    8 1   
     8    7   15 1   
     9    8    9 1   
    10    8   11 1   
    11    8   16 1   
    12    9   10 2   
    13    9   19 1   
    14   11   12 1   
    15   11   17 1   
    16   11   18 1   
    17   12   13 1   
    18   12   14 1   
    19   19   20 1   
    20   19   27 1   
    21   20   21 1   
    22   20   23 1   
    23   20   28 1   
    24   21   22 2   
    25   21   38 1   
    26   23   24 1   
    27   23   25 1   
    28   23   29 1   
    29   24   26 1   
    30   24   30 1   
    31   24   31 1   
    32   25   32 1   
    33   25   33 1   
    34   25   34 1   
    35   26   35 1   
    36   26   36 1   
    37   26   37 1   
    38   38   39 1   
    39   38   46 1   
    40   39   40 1   
    41   39   42 1   
    42   39   47 1   
    43   40   41 2   
    44   40   50 1   
    45   42   43 1   
    46   42   48 1   
    47   42   49 1   
    48   43   44 1   
    49   43   45 1   
    50   50   51 1   
    51   50   54 1   
    52   51   52 1   
    53   51   55 1   
    54   51   56 1   
    55   52   53 2   
    56   52   57 1   
    57   57   58 1   
    58   57   65 1   
    59   58   59 1   
    60   58   61 1   
    61   58   66 1   
    62   59   60 2   
    63   59   69 1   
    64   61   62 1   
    65   61   67 1   
    66   61   68 1   
    67   62   63 1   
    68   62   64 1   
    69   69   70 1   
    70   69   73 1   
    71   70   71 1   
    72   70   74 1   
    73   70   75 1   
    74   71   72 2   
    75   71   76 1   
    76   76   77 1   
    77   76   85 1   
    78   77   78 1   
    79   77   80 1   
    80   77   86 1   
    81   78   79 2   
    82   78   93 1   
    83   80   81 1   
    84   80   87 1   
    85   80   88 1   
    86   81   82 1   
    87   81   89 1   
    88   81   90 1   
    89   82   83 1   
    90   82   84 2   
    91   83   91 1   
    92   83   92 1   
    93   93   94 1   
    94   93  100 1   
    95   94   95 1   
    96   94   97 1   
    97   94  101 1   
    98   95   96 2   
    99   95  109 1   
   100   97   98 1   
   101   97   99 1   
   102   97  102 1   
   103   98  103 1   
   104   98  104 1   
   105   98  105 1   
   106   99  106 1   
   107   99  107 1   
   108   99  108 1   
   109  109  110 1   
   110  109  117 1   
   111  110  111 1   
   112  110  113 1   
   113  110  118 1   
   114  111  112 2   
   115  111  123 1   
   116  113  114 1   
   117  113  119 1   
   118  113  120 1   
   119  114  115 1   
   120  114  116 2   
   121  115  121 1   
   122  115  122 1   
   123  123  124 1   
   124  123  135 1   
   125  124  125 1   
   126  124  127 1   
   127  124  136 1   
   128  125  126 2   
   129  125  144 1   
   130  127  128 1   
   131  127  137 1   
   132  127  138 1   
   133  128  129 ar  
   134  128  130 ar  
   135  129  131 ar  
   136  129  139 1   
   137  130  132 ar  
   138  130  140 1   
   139  131  133 ar  
   140  131  141 1   
   141  132  133 ar  
   142  132  142 1   
   143  133  134 1   
   144  134  143 1   
   145  144  145 1   
   146  144  153 1   
   147  145  146 1   
   148  145  148 1   
   149  145  154 1   
   150  146  147 2   
   151  146  159 1   
   152  148  149 1   
   153  148  155 1   
   154  148  156 1   
   155  149  150 1   
   156  149  157 1   
   157  149  158 1   
   158  150  151 1   
   159  150  152 1   
   160  159  160 1   
   161  159  168 1   
   162  160  161 1   
   163  160  163 1   
   164  160  169 1   
   165  161  162 2   
   166  161  174 1   
   167  163  164 1   
   168  163  170 1   
   169  163  171 1   
   170  164  165 1   
   171  164  172 1   
   172  164  173 1   
   173  165  166 1   
   174  165  167 1   
   175  174  175 1   
   176  174  179 1   
   177  175  176 1   
   178  175  177 1   
   179  175  178 1   
   180  181  182 1   
   181  181  183 1   
@<TRIPOS>SUBSTRUCTURE
     1 MOL         1 TEMP              0 ****  ****    0 ROOT
