@<TRIPOS>MOLECULE
MOL
  179   176     1     0     0
SMALL
resp


@<TRIPOS>ATOM
      1 C1          2.3080    1.9020    6.0830 c3        1 MOL     -0.259039
      2 C2          1.7130    1.7710    4.6320 c         1 MOL      0.627200
      3 O1          2.5830    1.5780    3.7160 o         1 MOL     -0.574016
      4 H1          2.6510    0.9240    6.4240 hc        1 MOL      0.068942
      5 H2          3.1480    2.5960    6.0710 hc        1 MOL      0.068942
      6 H3          1.5390    2.2730    6.7600 hc        1 MOL      0.068942
      7 N1          0.4110    1.8910    4.4380 n         1 MOL     -0.524431
      8 C3         -0.2720    1.9110    3.1680 c3        1 MOL     -0.095552
      9 C4         -0.0030    3.3140    2.5780 c         1 MOL      0.657400
     10 O2         -0.5310    4.3250    3.0550 o         1 MOL     -0.551058
     11 C5         -1.7740    1.6210    3.3130 c3        1 MOL     -0.018649
     12 C6         -2.5370    1.5730    1.9540 c         1 MOL      0.898242
     13 O3         -1.8700    1.6640    0.8660 o         1 MOL     -0.819235
     14 O4         -3.7860    1.5300    1.9890 o         1 MOL     -0.819235
     15 H4         -0.1680    1.9210    5.2600 hn        1 MOL      0.331073
     16 H5          0.1700    1.1850    2.4850 h1        1 MOL      0.028777
     17 H6         -2.1830    2.4770    3.8540 hc        1 MOL      0.013355
     18 H7         -1.9650    0.7030    3.8680 hc        1 MOL      0.013355
     19 N2          0.7500    3.2910    1.4990 n         1 MOL     -0.284516
     20 C7          1.2920    4.5420    0.9410 c3        1 MOL     -0.231702
     21 C8          0.3050    5.3790    0.0980 c         1 MOL      0.501574
     22 O5          0.3320    6.5780    0.1780 o         1 MOL     -0.550525
     23 C9          2.4680    4.1900    0.0460 c3        1 MOL      0.248082
     24 C10         3.4320    5.3500   -0.3480 c3        1 MOL     -0.155609
     25 C11         4.7110    4.9780   -1.1000 c3        1 MOL      0.115274
     26 C12         5.8310    6.0090   -1.1540 c3        1 MOL     -0.057043
     27 N3          5.7210    6.8390   -2.3380 n4        1 MOL     -0.372325
     28 H8          1.0960    2.4330    1.0860 hn        1 MOL      0.236668
     29 H9          1.6860    5.1470    1.7470 h1        1 MOL      0.127887
     30 H10         2.1590    3.7270   -0.8930 hc        1 MOL      0.001056
     31 H11         3.1250    3.4430    0.4920 hc        1 MOL      0.001056
     32 H12         3.7130    5.8140    0.5940 hc        1 MOL      0.014344
     33 H13         2.8490    6.0650   -0.9290 hc        1 MOL      0.014344
     34 H14         4.3930    4.7200   -2.1040 hc        1 MOL      0.011706
     35 H15         5.0780    4.0790   -0.6030 hc        1 MOL      0.011706
     36 H16         6.7490    5.4250   -1.0410 hx        1 MOL      0.119136
     37 H17         5.7720    6.6870   -0.3040 hx        1 MOL      0.119136
     38 H18         4.8580    7.3670   -2.2720 hn        1 MOL      0.333549
     39 H19         6.4370    7.5520   -2.4270 hn        1 MOL      0.333549
     40 H20         5.6170    6.3440   -3.2230 hn        1 MOL      0.333549
     41 N4         -0.5680    4.6540   -0.6430 n         1 MOL     -0.205393
     42 C13        -1.5900    5.3460   -1.4010 c3        1 MOL      0.083884
     43 C14        -3.0680    5.2080   -0.9260 c         1 MOL      0.445385
     44 O6         -3.9250    5.8980   -1.4580 o         1 MOL     -0.510809
     45 C15        -1.5510    4.9550   -2.8940 c3        1 MOL     -0.374828
     46 C16        -1.6630    3.3930   -3.1150 c         1 MOL      0.815110
     47 O7         -1.6620    2.5900   -2.1220 o         1 MOL     -0.705920
     48 O8         -1.6560    2.9420   -4.2720 o         1 MOL     -0.705920
     49 H21        -0.5260    3.6470   -0.6790 hn        1 MOL      0.113225
     50 H22        -1.3610    6.4140   -1.3490 h1        1 MOL      0.075133
     51 H23        -0.6010    5.3060   -3.3100 hc        1 MOL      0.093917
     52 H24        -2.4110    5.4520   -3.3490 hc        1 MOL      0.093917
     53 N5         -3.2660    4.3230    0.1100 n         1 MOL     -0.158283
     54 C17        -4.4860    4.3820    0.8750 c3        1 MOL     -0.342826
     55 C18        -5.5620    3.4390    0.3390 c         1 MOL      0.565674
     56 O9         -6.7530    3.7140    0.5980 o         1 MOL     -0.574696
     57 H25        -2.6530    3.5540    0.3420 hn        1 MOL      0.115892
     58 H26        -4.8480    5.4110    0.7980 h1        1 MOL      0.159971
     59 H27        -4.3040    4.1420    1.9180 h1        1 MOL      0.159971
     60 N6         -5.1210    2.5360   -0.4890 n         1 MOL     -0.141893
     61 C19        -6.0370    1.5950   -1.1720 c3        1 MOL     -0.146196
     62 C20        -6.4960    0.4720   -0.1990 c         1 MOL      0.390677
     63 O10        -7.3240   -0.2900   -0.6840 o         1 MOL     -0.475099
     64 C21        -5.5420    1.0390   -2.5330 c3        1 MOL     -0.102556
     65 C22        -4.4930    0.0290   -2.6210 c         1 MOL      0.740054
     66 N7         -4.1780   -0.5640   -3.7540 n         1 MOL     -0.816785
     67 O11        -3.8890   -0.2650   -1.6570 o         1 MOL     -0.566805
     68 H28        -4.2450    2.6810   -0.9760 hn        1 MOL      0.162857
     69 H29        -6.8820    2.2300   -1.4650 h1        1 MOL      0.134004
     70 H30        -5.1420    1.7880   -3.2110 hc        1 MOL      0.060559
     71 H31        -6.4060    0.5720   -3.0080 hc        1 MOL      0.060559
     72 H32        -4.7850   -0.4370   -4.5450 hn        1 MOL      0.355732
     73 H33        -3.5300   -1.3360   -3.8640 hn        1 MOL      0.355732
     74 N8         -6.0720    0.2440    1.0510 n         1 MOL     -0.256834
     75 C23        -6.4830   -0.8340    1.9270 c3        1 MOL     -0.146551
     76 C24        -5.5820   -2.1170    1.9450 c         1 MOL      0.468358
     77 O12        -5.8150   -3.1750    2.5200 o         1 MOL     -0.562098
     78 H34        -5.2070    0.6820    1.3300 hn        1 MOL      0.335455
     79 H35        -7.4840   -1.1740    1.6550 h1        1 MOL      0.108439
     80 H36        -6.5780   -0.4590    2.9440 h1        1 MOL      0.108439
     81 N9         -4.5300   -2.0080    1.1730 n         1 MOL     -0.057909
     82 C25        -3.4970   -3.0920    1.0000 c3        1 MOL     -0.031285
     83 C26        -2.0350   -2.5390    1.1860 c         1 MOL      0.417713
     84 O13        -1.7370   -1.3960    0.7880 o         1 MOL     -0.580588
     85 C27        -3.7000   -3.7370   -0.4180 c3        1 MOL      0.282434
     86 C28        -5.1400   -4.2230   -0.7490 ca        1 MOL     -0.184315
     87 C29        -5.9420   -3.3950   -1.5280 ca        1 MOL     -0.107440
     88 C30        -5.6350   -5.4380   -0.2280 ca        1 MOL     -0.107440
     89 C31        -7.2530   -3.8120   -1.8420 ca        1 MOL     -0.186620
     90 C32        -6.9950   -5.8070   -0.4490 ca        1 MOL     -0.186620
     91 C33        -7.7940   -5.0090   -1.3000 ca        1 MOL      0.285461
     92 O14        -9.0890   -5.4040   -1.7750 oh        1 MOL     -0.508827
     93 H37        -4.3150   -1.1310    0.7170 hn        1 MOL      0.048433
     94 H38        -3.7010   -3.8880    1.7190 h1        1 MOL      0.063523
     95 H39        -2.9330   -4.4890   -0.6140 hc        1 MOL     -0.055014
     96 H40        -3.4250   -2.8950   -1.0540 hc        1 MOL     -0.055014
     97 H41        -5.5400   -2.4800   -1.9460 ha        1 MOL      0.115415
     98 H42        -4.9890   -6.1170    0.3150 ha        1 MOL      0.115415
     99 H43        -7.8580   -3.3110   -2.5890 ha        1 MOL      0.122511
    100 H44        -7.4390   -6.7380   -0.1290 ha        1 MOL      0.122511
    101 H45        -9.3300   -6.2800   -1.4690 ho        1 MOL      0.365565
    102 N10        -1.2020   -3.3560    1.7630 n         1 MOL     -0.401186
    103 C34         0.2610   -3.1030    1.8370 c3        1 MOL      0.080829
    104 C35         1.0720   -4.0520    1.0250 c         1 MOL      0.684984
    105 O15         0.9220   -5.2790    1.1210 o         1 MOL     -0.601934
    106 C36         0.6330   -2.9780    3.3380 c3        1 MOL     -0.057088
    107 C37         0.0790   -1.8090    4.1390 c3        1 MOL      0.170181
    108 C38         2.2150   -2.8320    3.3970 c3        1 MOL     -0.473537
    109 C39         0.2120   -1.9920    5.7170 c3        1 MOL     -0.390229
    110 H46        -1.6170   -4.2220    2.1030 hn        1 MOL      0.285064
    111 H47         0.4870   -2.1410    1.3640 h1        1 MOL      0.020257
    112 H48         0.3090   -3.8900    3.8510 hc        1 MOL      0.071744
    113 H49        -0.9430   -1.6300    3.8170 hc        1 MOL      0.007317
    114 H50         0.4850   -0.8530    3.7890 hc        1 MOL      0.007317
    115 H51         2.4900   -2.7830    4.4510 hc        1 MOL      0.127150
    116 H52         2.8040   -3.5620    2.8550 hc        1 MOL      0.127150
    117 H53         2.4700   -1.8240    3.0650 hc        1 MOL      0.127150
    118 H54         1.2780   -1.9600    5.9350 hc        1 MOL      0.099952
    119 H55        -0.2800   -1.1740    6.2420 hc        1 MOL      0.099952
    120 H56        -0.1850   -2.9770    5.9820 hc        1 MOL      0.099952
    121 N11         1.8380   -3.4580    0.1160 n         1 MOL     -0.480666
    122 C40         2.8390   -4.1910   -0.7210 c3        1 MOL      0.040685
    123 C41         4.3150   -3.8780   -0.4640 c         1 MOL      0.536389
    124 O16         4.6660   -2.8890    0.1900 o         1 MOL     -0.463555
    125 C42         2.4670   -3.9610   -2.1260 c3        1 MOL      0.051983
    126 O17         1.1380   -4.2380   -2.3160 oh        1 MOL     -0.513844
    127 H57         1.6550   -2.4880   -0.1000 hn        1 MOL      0.402585
    128 H58         2.7530   -5.2380   -0.4530 h1        1 MOL      0.080865
    129 H59         3.0240   -4.6240   -2.7830 h1        1 MOL      0.031069
    130 H60         2.7080   -2.9300   -2.4070 h1        1 MOL      0.031069
    131 H61         1.1090   -4.8610   -3.0510 ho        1 MOL      0.401136
    132 N12         5.1960   -4.7450   -0.9330 n         1 MOL     -0.542886
    133 C43         6.6220   -4.7270   -0.6390 c3        1 MOL      0.307081
    134 C44         7.4330   -3.4010   -0.9170 c         1 MOL      0.360064
    135 O18         8.1620   -2.9670   -0.0320 o         1 MOL     -0.520230
    136 C45         7.2330   -5.8440   -1.4640 c3        1 MOL     -0.452607
    137 H62         4.8410   -5.5450   -1.4430 hn        1 MOL      0.298665
    138 H63         6.6850   -4.9540    0.4240 h1        1 MOL      0.062869
    139 H64         7.2270   -5.6040   -2.5310 hc        1 MOL      0.126536
    140 H65         8.2430   -6.0500   -1.1120 hc        1 MOL      0.126536
    141 H66         6.6090   -6.7130   -1.2530 hc        1 MOL      0.126536
    142 N13         7.2510   -2.7640   -2.0620 n         1 MOL     -0.253993
    143 C46         7.8690   -1.4910   -2.4220 c3        1 MOL      0.220475
    144 C47         7.2620   -0.2370   -1.6880 c         1 MOL      0.325307
    145 O19         7.8630    0.8020   -1.6180 o         1 MOL     -0.488330
    146 C48         7.9150   -1.3660   -3.9140 c3        1 MOL     -0.377841
    147 H67         6.6680   -3.2810   -2.7150 hn        1 MOL      0.190620
    148 H68         8.9130   -1.5410   -2.1150 h1        1 MOL      0.079018
    149 H69         7.0730   -1.9060   -4.3500 hc        1 MOL      0.101886
    150 H70         7.7160   -0.3290   -4.1760 hc        1 MOL      0.101886
    151 H71         8.8460   -1.7820   -4.2950 hc        1 MOL      0.101886
    152 N14         6.0410   -0.4540   -1.1810 n         1 MOL     -0.194119
    153 C49         5.5100    0.5310   -0.2670 c3        1 MOL      0.005027
    154 C50         6.1470    0.3640    1.1140 c         1 MOL      0.451107
    155 O20         6.3540    1.3870    1.7400 o         1 MOL     -0.556151
    156 C51         4.0180    0.3270   -0.0380 c3        1 MOL      0.369258
    157 C52         3.2280    0.2670   -1.3790 c3        1 MOL     -0.154681
    158 C53         1.7000    0.3200   -1.1210 c         1 MOL      0.622128
    159 O21         1.0380    1.3850   -1.2690 o         1 MOL     -0.636696
    160 O22         1.1410   -0.7400   -0.8490 o         1 MOL     -0.636696
    161 H72         5.6220   -1.3650   -1.2350 hn        1 MOL      0.120509
    162 H73         5.6040    1.5680   -0.5870 h1        1 MOL      0.033943
    163 H74         3.6150    1.1910    0.4840 hc        1 MOL     -0.093707
    164 H75         3.7650   -0.5180    0.6080 hc        1 MOL     -0.093707
    165 H76         3.5960   -0.6680   -1.8000 hc        1 MOL     -0.028457
    166 H77         3.5600    1.1480   -1.9240 hc        1 MOL     -0.028457
    167 N15         6.4120   -0.8330    1.5790 n         1 MOL     -0.077846
    168 C54         6.9350   -1.1120    2.9130 c3        1 MOL     -0.375000
    169 H78         7.1020   -2.1840    3.0200 h1        1 MOL      0.139918
    170 H79         7.8770   -0.5820    3.0520 h1        1 MOL      0.139918
    171 H80         6.2160   -0.7800    3.6620 h1        1 MOL      0.139918
    172 H81         6.2510   -1.6080    0.9550 hn        1 MOL      0.140318
    173 Ca1        -1.3700    0.1350   -1.2250 Ca        1 MOL      1.700230
    174 O23        -1.5110    0.2480   -3.8380 oh        1 MOL     -0.877381
    175 H82        -1.4850    1.1870   -4.0120 ho        1 MOL      0.399629
    176 H83        -2.1440   -0.0990   -4.4620 ho        1 MOL      0.399629
    177 O24        -0.9350   -2.2870   -2.2370 oh        1 MOL     -0.877381
    178 H84        -0.2200   -2.9220   -2.2870 ho        1 MOL      0.399629
    179 H85        -1.4610   -2.4680   -3.0130 ho        1 MOL      0.399629
@<TRIPOS>BOND
     1    1    2 1   
     2    1    4 1   
     3    1    5 1   
     4    1    6 1   
     5    2    3 2   
     6    2    7 1   
     7    7    8 1   
     8    7   15 1   
     9    8    9 1   
    10    8   11 1   
    11    8   16 1   
    12    9   10 2   
    13    9   19 1   
    14   11   12 1   
    15   11   17 1   
    16   11   18 1   
    17   12   13 1   
    18   12   14 1   
    19   19   20 1   
    20   19   28 1   
    21   20   21 1   
    22   20   23 1   
    23   20   29 1   
    24   21   22 2   
    25   21   41 1   
    26   23   24 1   
    27   23   30 1   
    28   23   31 1   
    29   24   25 1   
    30   24   32 1   
    31   24   33 1   
    32   25   26 1   
    33   25   34 1   
    34   25   35 1   
    35   26   27 1   
    36   26   36 1   
    37   26   37 1   
    38   27   38 1   
    39   27   39 1   
    40   27   40 1   
    41   41   42 1   
    42   41   49 1   
    43   42   43 1   
    44   42   45 1   
    45   42   50 1   
    46   43   44 2   
    47   43   53 1   
    48   45   46 1   
    49   45   51 1   
    50   45   52 1   
    51   46   47 1   
    52   46   48 1   
    53   53   54 1   
    54   53   57 1   
    55   54   55 1   
    56   54   58 1   
    57   54   59 1   
    58   55   56 2   
    59   55   60 1   
    60   60   61 1   
    61   60   68 1   
    62   61   62 1   
    63   61   64 1   
    64   61   69 1   
    65   62   63 2   
    66   62   74 1   
    67   64   65 1   
    68   64   70 1   
    69   64   71 1   
    70   65   66 1   
    71   65   67 2   
    72   66   72 1   
    73   66   73 1   
    74   74   75 1   
    75   74   78 1   
    76   75   76 1   
    77   75   79 1   
    78   75   80 1   
    79   76   77 2   
    80   76   81 1   
    81   81   82 1   
    82   81   93 1   
    83   82   83 1   
    84   82   85 1   
    85   82   94 1   
    86   83   84 2   
    87   83  102 1   
    88   85   86 1   
    89   85   95 1   
    90   85   96 1   
    91   86   87 ar  
    92   86   88 ar  
    93   87   89 ar  
    94   87   97 1   
    95   88   90 ar  
    96   88   98 1   
    97   89   91 ar  
    98   89   99 1   
    99   90   91 ar  
   100   90  100 1   
   101   91   92 1   
   102   92  101 1   
   103  102  103 1   
   104  102  110 1   
   105  103  104 1   
   106  103  106 1   
   107  103  111 1   
   108  104  105 2   
   109  104  121 1   
   110  106  107 1   
   111  106  108 1   
   112  106  112 1   
   113  107  109 1   
   114  107  113 1   
   115  107  114 1   
   116  108  115 1   
   117  108  116 1   
   118  108  117 1   
   119  109  118 1   
   120  109  119 1   
   121  109  120 1   
   122  121  122 1   
   123  121  127 1   
   124  122  123 1   
   125  122  125 1   
   126  122  128 1   
   127  123  124 2   
   128  123  132 1   
   129  125  126 1   
   130  125  129 1   
   131  125  130 1   
   132  126  131 1   
   133  132  133 1   
   134  132  137 1   
   135  133  134 1   
   136  133  136 1   
   137  133  138 1   
   138  134  135 2   
   139  134  142 1   
   140  136  139 1   
   141  136  140 1   
   142  136  141 1   
   143  142  143 1   
   144  142  147 1   
   145  143  144 1   
   146  143  146 1   
   147  143  148 1   
   148  144  145 2   
   149  144  152 1   
   150  146  149 1   
   151  146  150 1   
   152  146  151 1   
   153  152  153 1   
   154  152  161 1   
   155  153  154 1   
   156  153  156 1   
   157  153  162 1   
   158  154  155 2   
   159  154  167 1   
   160  156  157 1   
   161  156  163 1   
   162  156  164 1   
   163  157  158 1   
   164  157  165 1   
   165  157  166 1   
   166  158  159 1   
   167  158  160 1   
   168  167  168 1   
   169  167  172 1   
   170  168  169 1   
   171  168  170 1   
   172  168  171 1   
   173  174  175 1   
   174  174  176 1   
   175  177  178 1   
   176  177  179 1   
@<TRIPOS>SUBSTRUCTURE
     1 MOL         1 TEMP              0 ****  ****    0 ROOT
