@<TRIPOS>MOLECULE
MOL
  179   176     1     0     0
SMALL
resp


@<TRIPOS>ATOM
      1 C1          2.0480    3.8350    3.9860 c3        1 MOL     -0.184099
      2 C2          1.2450    3.3080    2.7600 c         1 MOL      0.494887
      3 O1          1.7570    3.3520    1.6480 o         1 MOL     -0.514830
      4 H1          3.0420    3.3880    3.9890 hc        1 MOL      0.049494
      5 H2          2.1390    4.9190    3.9240 hc        1 MOL      0.049494
      6 H3          1.5270    3.5660    4.9050 hc        1 MOL      0.049494
      7 N1         -0.0340    2.9240    2.9710 n         1 MOL     -0.506835
      8 C3         -0.9930    2.5370    1.9740 c3        1 MOL     -0.006010
      9 C4         -1.6680    3.7870    1.2960 c         1 MOL      0.528722
     10 O2         -2.8830    4.0290    1.3920 o         1 MOL     -0.463355
     11 C5         -2.0130    1.6880    2.7550 c3        1 MOL      0.146230
     12 C6         -3.1010    1.0220    1.8130 c         1 MOL      0.543697
     13 O3         -4.1580    0.5680    2.2960 o         1 MOL     -0.631851
     14 O4         -2.7850    0.9740    0.5970 o         1 MOL     -0.631851
     15 H4         -0.3190    2.8100    3.9370 hn        1 MOL      0.311325
     16 H5         -0.5560    1.9080    1.2000 h1        1 MOL      0.059322
     17 H6         -2.5790    2.2990    3.4570 hc        1 MOL     -0.038844
     18 H7         -1.6080    0.9460    3.4450 hc        1 MOL     -0.038844
     19 N2         -0.8710    4.6000    0.5800 n         1 MOL     -0.503975
     20 C7         -1.2050    5.8990   -0.0550 c3        1 MOL      0.024529
     21 C8         -2.3360    5.7340   -1.1460 c         1 MOL      0.360202
     22 O5         -2.9650    6.8080   -1.4580 o         1 MOL     -0.549863
     23 C9         -0.0720    6.6490   -0.7070 c3        1 MOL     -0.150659
     24 C10         1.0980    6.9240    0.2790 c3        1 MOL     -0.004581
     25 C11         2.1410    7.8350   -0.3910 c3        1 MOL      0.179804
     26 C12         3.4020    7.9540    0.3990 c3        1 MOL     -0.108905
     27 N3          3.0490    8.4200    1.8110 n4        1 MOL     -0.326063
     28 H8          0.0940    4.3020    0.6390 hn        1 MOL      0.378161
     29 H9         -1.5890    6.5930    0.6960 h1        1 MOL      0.094216
     30 H10        -0.3620    7.5940   -1.1570 hc        1 MOL      0.091197
     31 H11         0.2360    5.9110   -1.4570 hc        1 MOL      0.091197
     32 H12         1.4920    5.9220    0.4250 hc        1 MOL     -0.004321
     33 H13         0.6950    7.5310    1.0910 hc        1 MOL     -0.004321
     34 H14         1.6460    8.8010   -0.5250 hc        1 MOL     -0.001942
     35 H15         2.3990    7.5590   -1.4150 hc        1 MOL     -0.001942
     36 H16         4.0690    8.5860   -0.1840 hx        1 MOL      0.128521
     37 H17         3.8470    6.9770    0.6050 hx        1 MOL      0.128521
     38 H18         2.3310    7.8240    2.1980 hn        1 MOL      0.313448
     39 H19         3.8640    8.3530    2.4000 hn        1 MOL      0.313448
     40 H20         2.6520    9.3480    1.8050 hn        1 MOL      0.313448
     41 N4         -2.7270    4.5360   -1.5830 n         1 MOL     -0.177005
     42 C13        -3.8730    4.2970   -2.4450 c3        1 MOL      0.004837
     43 C14        -5.0580    3.6650   -1.6700 c         1 MOL      0.390265
     44 O6         -6.1220    3.7090   -2.2640 o         1 MOL     -0.500234
     45 C15        -3.4150    3.2730   -3.4670 c3        1 MOL     -0.230408
     46 C16        -2.8720    1.9780   -2.8860 c         1 MOL      0.826801
     47 O7         -3.6060    0.9660   -2.7020 o         1 MOL     -0.776681
     48 O8         -1.6750    1.8920   -2.5020 o         1 MOL     -0.776681
     49 H21        -2.2600    3.7370   -1.1750 hn        1 MOL      0.189982
     50 H22        -4.1560    5.2340   -2.9280 h1        1 MOL      0.128852
     51 H23        -2.6180    3.6420   -4.1190 hc        1 MOL      0.057246
     52 H24        -4.2160    2.9870   -4.1400 hc        1 MOL      0.057246
     53 N5         -4.9050    3.4220   -0.3270 n         1 MOL     -0.000615
     54 C17        -6.0420    3.1010    0.4650 c3        1 MOL     -0.258273
     55 C18        -6.6550    1.7640    0.0940 c         1 MOL      0.576535
     56 O9         -7.9140    1.7230    0.0640 o         1 MOL     -0.596726
     57 H25        -3.9600    3.4650    0.0360 hn        1 MOL      0.055824
     58 H26        -6.7570    3.9020    0.2760 h1        1 MOL      0.111103
     59 H27        -5.7220    3.0320    1.5070 h1        1 MOL      0.111103
     60 N6         -5.9180    0.6940   -0.0640 n         1 MOL     -0.196823
     61 C19        -6.4960   -0.6690   -0.3840 c3        1 MOL      0.029005
     62 C20        -6.3600   -1.8320    0.6360 c         1 MOL      0.238223
     63 O10        -6.8890   -2.9210    0.3730 o         1 MOL     -0.440836
     64 C21        -6.0700   -1.1460   -1.7410 c3        1 MOL     -0.146061
     65 C22        -4.7040   -1.8420   -1.9190 c         1 MOL      0.461852
     66 N7         -4.4690   -2.3720   -3.0910 n         1 MOL     -0.362726
     67 O11        -3.8970   -1.8850   -0.9490 o         1 MOL     -0.523441
     68 H28        -4.9170    0.6790    0.0770 hn        1 MOL      0.106093
     69 H29        -7.5850   -0.6320   -0.4340 h1        1 MOL      0.108089
     70 H30        -6.1170   -0.2600   -2.3780 hc        1 MOL      0.065592
     71 H31        -6.7960   -1.9020   -2.0520 hc        1 MOL      0.065592
     72 H32        -5.0550   -2.1600   -3.8870 hn        1 MOL      0.245893
     73 H33        -3.8110   -3.1330   -3.1200 hn        1 MOL      0.245893
     74 N8         -5.7760   -1.6670    1.7860 n         1 MOL     -0.125420
     75 C23        -5.8630   -2.5810    2.9310 c3        1 MOL     -0.091669
     76 C24        -4.4780   -3.2670    3.2040 c         1 MOL      0.507504
     77 O12        -4.3650   -4.0050    4.1530 o         1 MOL     -0.552044
     78 H34        -5.4560   -0.7440    2.0390 hn        1 MOL      0.219547
     79 H35        -6.6540   -3.3190    2.8510 h1        1 MOL      0.083000
     80 H36        -6.0930   -1.9720    3.8150 h1        1 MOL      0.083000
     81 N9         -3.4930   -3.0620    2.2690 n         1 MOL     -0.351657
     82 C25        -2.1890   -3.8030    2.3070 c3        1 MOL      0.245171
     83 C26        -1.0470   -3.0390    1.5930 c         1 MOL      0.305048
     84 O13        -1.2640   -2.1230    0.8250 o         1 MOL     -0.701249
     85 C27        -2.3070   -5.2440    1.7540 c3        1 MOL     -0.201765
     86 C28        -3.0850   -5.4730    0.4580 ca        1 MOL      0.360801
     87 C29        -4.4860   -5.7080    0.3850 ca        1 MOL     -0.436886
     88 C30        -2.3300   -5.4860   -0.7210 ca        1 MOL     -0.436886
     89 C31        -5.0900   -5.7780   -0.8960 ca        1 MOL      0.027077
     90 C32        -2.9770   -5.5770   -1.9640 ca        1 MOL      0.027077
     91 C33        -4.3740   -5.6630   -2.0980 ca        1 MOL      0.073178
     92 O14        -5.0630   -5.6210   -3.2800 oh        1 MOL     -0.406109
     93 H37        -3.7620   -2.5200    1.4640 hn        1 MOL      0.292068
     94 H38        -1.8180   -3.8190    3.3290 h1        1 MOL      0.019527
     95 H39        -2.6990   -5.8530    2.5740 hc        1 MOL      0.045134
     96 H40        -1.2820   -5.5680    1.5350 hc        1 MOL      0.045134
     97 H41        -5.1290   -5.7100    1.2510 ha        1 MOL      0.220869
     98 H42        -1.2740   -5.2790   -0.6610 ha        1 MOL      0.220869
     99 H43        -6.1430   -5.5600   -0.9970 ha        1 MOL      0.064353
    100 H44        -2.4080   -5.5410   -2.8850 ha        1 MOL      0.064353
    101 H45        -4.5400   -5.2850   -4.0080 ho        1 MOL      0.323554
    102 N10         0.1560   -3.3570    1.9640 n         1 MOL     -0.174525
    103 C34         1.3220   -2.6310    1.5500 c3        1 MOL     -0.133440
    104 C35         2.4690   -3.5750    1.1990 c         1 MOL      0.560532
    105 O15         2.3810   -4.7490    1.4550 o         1 MOL     -0.556302
    106 C36         1.6910   -1.4980    2.6380 c3        1 MOL     -0.132427
    107 C37         2.2490   -2.1140    3.9380 c3        1 MOL     -0.181985
    108 C38         0.6180   -0.4690    2.8680 c3        1 MOL      0.029954
    109 C39         2.9220   -1.0710    4.9320 c3        1 MOL     -0.262420
    110 H46         0.2750   -4.1980    2.4960 hn        1 MOL      0.255367
    111 H47         1.1440   -2.1720    0.5730 h1        1 MOL      0.184972
    112 H48         2.5440   -0.9320    2.2400 hc        1 MOL      0.035946
    113 H49         3.0830   -2.7720    3.6960 hc        1 MOL      0.094584
    114 H50         1.5440   -2.7950    4.4220 hc        1 MOL      0.094584
    115 H51         0.1450   -0.1520    1.9430 hc        1 MOL      0.048217
    116 H52        -0.2030   -0.9090    3.4360 hc        1 MOL      0.048217
    117 H53         0.9500    0.3760    3.4610 hc        1 MOL      0.048217
    118 H54         3.7070   -1.6480    5.4130 hc        1 MOL      0.082632
    119 H55         3.4580   -0.3460    4.3160 hc        1 MOL      0.082632
    120 H56         2.1920   -0.5510    5.5670 hc        1 MOL      0.082632
    121 N11         3.4450   -3.0780    0.4920 n         1 MOL     -0.493389
    122 C40         4.6350   -3.7640   -0.0260 c3        1 MOL      0.321185
    123 C41         5.9400   -3.0490    0.3480 c         1 MOL      0.278837
    124 O16         5.9050   -1.8720    0.7900 o         1 MOL     -0.336307
    125 C42         4.4390   -4.0990   -1.4620 c3        1 MOL     -0.186251
    126 O17         4.7190   -2.8590   -2.1980 oh        1 MOL     -0.523475
    127 H57         3.2940   -2.1190    0.2390 hn        1 MOL      0.268147
    128 H58         4.6540   -4.7830    0.3720 h1        1 MOL      0.014620
    129 H59         3.5520   -4.6920   -1.6480 h1        1 MOL      0.121324
    130 H60         5.2310   -4.7900   -1.7600 h1        1 MOL      0.121324
    131 H61         4.1860   -2.8290   -2.9970 ho        1 MOL      0.399064
    132 N12         7.0320   -3.7310   -0.0030 n         1 MOL     -0.386869
    133 C43         8.3240   -3.0840   -0.0040 c3        1 MOL      0.182002
    134 C44         8.4260   -1.8150   -0.8780 c         1 MOL      0.415890
    135 O18         8.9320   -0.8140   -0.4570 o         1 MOL     -0.493197
    136 C45         9.4150   -4.0630   -0.3590 c3        1 MOL     -0.341443
    137 H62         7.0010   -4.6690   -0.3920 hn        1 MOL      0.290322
    138 H63         8.4900   -2.7150    1.0030 h1        1 MOL      0.081222
    139 H64         9.3800   -4.8360    0.4150 hc        1 MOL      0.099595
    140 H65         9.1230   -4.5450   -1.2910 hc        1 MOL      0.099595
    141 H66        10.4200   -3.6550   -0.4470 hc        1 MOL      0.099595
    142 N13         7.8330   -1.7330   -2.0920 n         1 MOL     -0.309186
    143 C46         7.8410   -0.4630   -2.9490 c3        1 MOL     -0.049624
    144 C47         7.0530    0.6710   -2.1850 c         1 MOL      0.468419
    145 O19         7.4750    1.8080   -2.2560 o         1 MOL     -0.523709
    146 C48         7.1410   -0.7160   -4.3150 c3        1 MOL     -0.233266
    147 H67         7.3560   -2.5550   -2.4360 hn        1 MOL      0.200692
    148 H68         8.8730   -0.1470   -3.0990 h1        1 MOL      0.136465
    149 H69         7.5370   -1.5630   -4.8710 hc        1 MOL      0.076479
    150 H70         6.0590   -0.7780   -4.2340 hc        1 MOL      0.076479
    151 H71         7.3750    0.0740   -5.0250 hc        1 MOL      0.076479
    152 N14         5.9680    0.3930   -1.4540 n         1 MOL     -0.170220
    153 C49         5.0990    1.3720   -0.6680 c3        1 MOL     -0.181262
    154 C50         5.7780    1.8300    0.6040 c         1 MOL      0.565503
    155 O20         5.9000    3.0200    0.7720 o         1 MOL     -0.569328
    156 C51         3.7110    0.7720   -0.3950 c3        1 MOL      0.149632
    157 C52         2.8880    0.6800   -1.7480 c3        1 MOL     -0.036097
    158 C53         1.4320    0.1800   -1.3510 c         1 MOL      0.736710
    159 O21         0.7390    0.8470   -0.5390 o         1 MOL     -0.763271
    160 O22         0.8980   -0.8490   -1.8260 o         1 MOL     -0.763271
    161 H72         5.7560   -0.5790   -1.3070 hn        1 MOL      0.197017
    162 H73         5.0000    2.2370   -1.3110 h1        1 MOL      0.120514
    163 H74         3.2450    1.4590    0.3090 hc        1 MOL     -0.002154
    164 H75         3.7040   -0.1770    0.1320 hc        1 MOL     -0.002154
    165 H76         3.3520   -0.1200   -2.3270 hc        1 MOL     -0.024356
    166 H77         2.9260    1.6180   -2.3020 hc        1 MOL     -0.024356
    167 N15         6.3040    0.8770    1.3930 n         1 MOL     -0.223584
    168 C54         7.2220    1.1190    2.4970 c3        1 MOL     -0.131347
    169 H78         7.9930    0.3490    2.5020 h1        1 MOL      0.068674
    170 H79         7.6860    2.0980    2.3770 h1        1 MOL      0.068674
    171 H80         6.6740    1.0890    3.4390 h1        1 MOL      0.068674
    172 H81         6.2300   -0.1080    1.1900 hn        1 MOL      0.148564
    173 Ca1        -1.5640   -0.3890   -1.2150 Ca        1 MOL      1.736316
    174 O23        -1.2930   -2.8920   -1.8460 oh        1 MOL     -0.683290
    175 H82        -1.8180   -3.6720   -2.0410 ho        1 MOL      0.312485
    176 H83        -0.6450   -3.1940   -1.2090 ho        1 MOL      0.312485
    177 O24        -1.7590   -0.9190   -3.8250 oh        1 MOL     -0.683290
    178 H84        -1.3450   -1.7460   -4.0910 ho        1 MOL      0.312485
    179 H85        -2.6690   -1.0070   -4.0840 ho        1 MOL      0.312485
@<TRIPOS>BOND
     1    1    2 1   
     2    1    4 1   
     3    1    5 1   
     4    1    6 1   
     5    2    3 2   
     6    2    7 1   
     7    7    8 1   
     8    7   15 1   
     9    8    9 1   
    10    8   11 1   
    11    8   16 1   
    12    9   10 2   
    13    9   19 1   
    14   11   12 1   
    15   11   17 1   
    16   11   18 1   
    17   12   13 1   
    18   12   14 1   
    19   19   20 1   
    20   19   28 1   
    21   20   21 1   
    22   20   23 1   
    23   20   29 1   
    24   21   22 2   
    25   21   41 1   
    26   23   24 1   
    27   23   30 1   
    28   23   31 1   
    29   24   25 1   
    30   24   32 1   
    31   24   33 1   
    32   25   26 1   
    33   25   34 1   
    34   25   35 1   
    35   26   27 1   
    36   26   36 1   
    37   26   37 1   
    38   27   38 1   
    39   27   39 1   
    40   27   40 1   
    41   41   42 1   
    42   41   49 1   
    43   42   43 1   
    44   42   45 1   
    45   42   50 1   
    46   43   44 2   
    47   43   53 1   
    48   45   46 1   
    49   45   51 1   
    50   45   52 1   
    51   46   47 1   
    52   46   48 1   
    53   53   54 1   
    54   53   57 1   
    55   54   55 1   
    56   54   58 1   
    57   54   59 1   
    58   55   56 2   
    59   55   60 1   
    60   60   61 1   
    61   60   68 1   
    62   61   62 1   
    63   61   64 1   
    64   61   69 1   
    65   62   63 2   
    66   62   74 1   
    67   64   65 1   
    68   64   70 1   
    69   64   71 1   
    70   65   66 1   
    71   65   67 2   
    72   66   72 1   
    73   66   73 1   
    74   74   75 1   
    75   74   78 1   
    76   75   76 1   
    77   75   79 1   
    78   75   80 1   
    79   76   77 2   
    80   76   81 1   
    81   81   82 1   
    82   81   93 1   
    83   82   83 1   
    84   82   85 1   
    85   82   94 1   
    86   83   84 2   
    87   83  102 1   
    88   85   86 1   
    89   85   95 1   
    90   85   96 1   
    91   86   87 ar  
    92   86   88 ar  
    93   87   89 ar  
    94   87   97 1   
    95   88   90 ar  
    96   88   98 1   
    97   89   91 ar  
    98   89   99 1   
    99   90   91 ar  
   100   90  100 1   
   101   91   92 1   
   102   92  101 1   
   103  102  103 1   
   104  102  110 1   
   105  103  104 1   
   106  103  106 1   
   107  103  111 1   
   108  104  105 2   
   109  104  121 1   
   110  106  107 1   
   111  106  108 1   
   112  106  112 1   
   113  107  109 1   
   114  107  113 1   
   115  107  114 1   
   116  108  115 1   
   117  108  116 1   
   118  108  117 1   
   119  109  118 1   
   120  109  119 1   
   121  109  120 1   
   122  121  122 1   
   123  121  127 1   
   124  122  123 1   
   125  122  125 1   
   126  122  128 1   
   127  123  124 2   
   128  123  132 1   
   129  125  126 1   
   130  125  129 1   
   131  125  130 1   
   132  126  131 1   
   133  132  133 1   
   134  132  137 1   
   135  133  134 1   
   136  133  136 1   
   137  133  138 1   
   138  134  135 2   
   139  134  142 1   
   140  136  139 1   
   141  136  140 1   
   142  136  141 1   
   143  142  143 1   
   144  142  147 1   
   145  143  144 1   
   146  143  146 1   
   147  143  148 1   
   148  144  145 2   
   149  144  152 1   
   150  146  149 1   
   151  146  150 1   
   152  146  151 1   
   153  152  153 1   
   154  152  161 1   
   155  153  154 1   
   156  153  156 1   
   157  153  162 1   
   158  154  155 2   
   159  154  167 1   
   160  156  157 1   
   161  156  163 1   
   162  156  164 1   
   163  157  158 1   
   164  157  165 1   
   165  157  166 1   
   166  158  159 1   
   167  158  160 1   
   168  167  168 1   
   169  167  172 1   
   170  168  169 1   
   171  168  170 1   
   172  168  171 1   
   173  174  175 1   
   174  174  176 1   
   175  177  178 1   
   176  177  179 1   
@<TRIPOS>SUBSTRUCTURE
     1 MOL         1 TEMP              0 ****  ****    0 ROOT
