@<TRIPOS>MOLECULE
MOL
  189   185     1     0     0
SMALL
resp


@<TRIPOS>ATOM
      1 C1         -0.1330    1.9600    5.3910 c3        1 MOL     -0.170905
      2 C2         -0.5780    1.8040    3.8910 c         1 MOL      0.593924
      3 O1          0.2320    2.0060    2.9880 o         1 MOL     -0.533823
      4 H1         -0.8150    1.4010    6.0320 hc        1 MOL      0.045532
      5 H2          0.8790    1.5730    5.5130 hc        1 MOL      0.045532
      6 H3         -0.1550    3.0130    5.6700 hc        1 MOL      0.045532
      7 N1         -1.8160    1.3920    3.6810 n         1 MOL     -0.506561
      8 C3         -2.4530    1.3060    2.3850 c3        1 MOL      0.120045
      9 C4         -3.0880    2.6370    2.0460 c         1 MOL      0.556408
     10 O2         -3.9500    3.0920    2.8410 o         1 MOL     -0.587753
     11 C5         -3.4500    0.1380    2.3210 c3        1 MOL     -0.275368
     12 C6         -4.2330    0.1080    1.0760 c         1 MOL      0.795489
     13 O3         -5.4220    0.1770    1.1800 o         1 MOL     -0.601114
     14 O4         -3.6190    0.2420   -0.0760 o         1 MOL     -0.601114
     15 H4         -2.4500    1.1810    4.4440 hn        1 MOL      0.312815
     16 H5         -1.7610    0.8980    1.6520 h1        1 MOL      0.050666
     17 H6         -4.1790    0.2400    3.1160 hc        1 MOL      0.041776
     18 H7         -2.9560   -0.8350    2.3580 hc        1 MOL      0.041776
     19 N2         -2.5310    3.3130    1.0230 n         1 MOL     -0.384753
     20 C7         -2.9740    4.6370    0.5970 c3        1 MOL      0.023633
     21 C8         -3.9050    4.6050   -0.6270 c         1 MOL      0.361998
     22 O5         -4.2820    5.6240   -1.1550 o         1 MOL     -0.523907
     23 C9         -1.6970    5.5310    0.2250 c3        1 MOL      0.051070
     24 C10        -0.6490    5.7410    1.3680 c3        1 MOL     -0.075956
     25 C11        -1.2110    6.0730    2.7820 c3        1 MOL     -0.311723
     26 C12        -1.6610    7.5410    2.8910 c3        1 MOL      0.260564
     27 N3         -2.6600    7.8030    3.9360 n4        1 MOL     -0.545144
     28 H8         -1.7610    2.9010    0.5140 hn        1 MOL      0.315606
     29 H9         -3.5420    5.2410    1.2930 h1        1 MOL      0.066030
     30 H10        -2.0580    6.5420    0.0480 hc        1 MOL      0.017670
     31 H11        -1.1450    5.2210   -0.6670 hc        1 MOL      0.017670
     32 H12         0.0800    6.4820    1.0680 hc        1 MOL      0.084063
     33 H13        -0.0610    4.8290    1.4760 hc        1 MOL      0.084063
     34 H14        -0.2760    6.0150    3.3550 hc        1 MOL      0.098659
     35 H15        -1.9800    5.4040    3.1570 hc        1 MOL      0.098659
     36 H16        -2.0390    7.8110    1.9050 hx        1 MOL      0.025176
     37 H17        -0.7920    8.1840    3.0040 hx        1 MOL      0.025176
     38 H18        -3.2040    6.9560    4.0420 hn        1 MOL      0.375903
     39 H19        -2.2680    8.1160    4.8060 hn        1 MOL      0.375903
     40 H20        -3.3000    8.5230    3.6110 hn        1 MOL      0.375903
     41 N4         -4.2070    3.3840   -1.1310 n         1 MOL      0.024633
     42 C13        -5.0010    3.2460   -2.3620 c3        1 MOL     -0.149241
     43 C14        -6.4490    2.8630   -2.0980 c         1 MOL      0.426417
     44 O6         -7.3380    3.1300   -2.9410 o         1 MOL     -0.508214
     45 C15        -4.4140    2.1110   -3.2390 c3        1 MOL      0.075002
     46 C16        -2.9980    2.4030   -3.5880 c         1 MOL      0.592145
     47 O7         -2.0760    1.8190   -2.8690 o         1 MOL     -0.627726
     48 O8         -2.7170    3.1090   -4.5730 o         1 MOL     -0.627726
     49 H21        -3.9390    2.5660   -0.6030 hn        1 MOL     -0.071530
     50 H22        -5.0940    4.2100   -2.8770 h1        1 MOL      0.124782
     51 H23        -4.9950    1.9770   -4.1530 hc        1 MOL      0.004247
     52 H24        -4.4200    1.1570   -2.7150 hc        1 MOL      0.004247
     53 N5         -6.7360    2.1110   -0.9900 n         1 MOL     -0.339738
     54 C17        -7.9930    1.4600   -0.8490 c3        1 MOL     -0.139161
     55 C18        -7.9640   -0.0100   -1.3260 c         1 MOL      0.512162
     56 O9         -8.9470   -0.7250   -1.5070 o         1 MOL     -0.583974
     57 H25        -6.0440    1.9480   -0.2670 hn        1 MOL      0.269077
     58 H26        -8.7600    1.9720   -1.4260 h1        1 MOL      0.100690
     59 H27        -8.2680    1.4060    0.2080 h1        1 MOL      0.100690
     60 N6         -6.7550   -0.5970   -1.5340 n         1 MOL     -0.100128
     61 C19        -6.5860   -1.9220   -2.1570 c3        1 MOL     -0.092787
     62 C20        -6.4680   -2.9830   -1.1050 c         1 MOL      0.483055
     63 O10        -6.6740   -4.1770   -1.3580 o         1 MOL     -0.527337
     64 C21        -5.4420   -1.9860   -3.1960 c3        1 MOL     -0.377185
     65 C22        -4.0220   -1.7150   -2.7370 c         1 MOL      0.864468
     66 O11        -3.5530   -2.2190   -1.7130 o         1 MOL     -0.775576
     67 O12        -3.1880   -1.0160   -3.4150 o         1 MOL     -0.775576
     68 H28        -5.9380   -0.2820   -1.0330 hn        1 MOL      0.071583
     69 H29        -7.5410   -2.1180   -2.6410 h1        1 MOL      0.153810
     70 H30        -5.7260   -1.4080   -4.0750 hc        1 MOL      0.115216
     71 H31        -5.4890   -3.0280   -3.5310 hc        1 MOL      0.115216
     72 N7         -6.3760   -2.5590    0.2020 n         1 MOL     -0.217506
     73 C23        -6.3470   -3.4910    1.3240 c3        1 MOL     -0.199379
     74 C24        -5.0670   -4.4100    1.3950 c         1 MOL      0.542756
     75 O13        -5.0830   -5.4250    2.0400 o         1 MOL     -0.558915
     76 H32        -6.0490   -1.6350    0.4430 hn        1 MOL      0.167326
     77 H33        -7.2830   -4.0380    1.2180 h1        1 MOL      0.104902
     78 H34        -6.4090   -2.9300    2.2540 h1        1 MOL      0.104902
     79 N8         -3.9770   -4.0010    0.7450 n         1 MOL     -0.116349
     80 C25        -2.6110   -4.5480    0.8040 c3        1 MOL     -0.269793
     81 C26        -1.5220   -3.5110    1.0410 c         1 MOL      0.557472
     82 O14        -1.6030   -2.3740    0.4960 o         1 MOL     -0.544526
     83 C27        -2.2900   -5.4280   -0.3030 c3        1 MOL      0.542874
     84 C28        -3.1190   -6.6840   -0.4810 c3        1 MOL     -0.531972
     85 O15        -2.3590   -4.7580   -1.5870 oh        1 MOL     -0.700856
     86 H35        -4.0310   -3.2170    0.1190 hn        1 MOL      0.065688
     87 H36        -2.6230   -5.1780    1.6850 h1        1 MOL      0.093256
     88 H37        -1.2810   -5.8100   -0.1660 h1        1 MOL     -0.020698
     89 H38        -2.8720   -3.9590   -1.4760 ho        1 MOL      0.483667
     90 H39        -4.1880   -6.4810   -0.4540 hc        1 MOL      0.138485
     91 H40        -2.8260   -7.0440   -1.4650 hc        1 MOL      0.138485
     92 H41        -2.8740   -7.4450    0.2630 hc        1 MOL      0.138485
     93 N9         -0.3490   -3.9660    1.5210 n         1 MOL     -0.450665
     94 C29         0.8580   -3.1270    1.8270 c3        1 MOL      0.098590
     95 C30         1.9920   -3.5410    0.8550 c         1 MOL      0.354781
     96 O16         2.2650   -4.7550    0.7670 o         1 MOL     -0.559443
     97 C31         1.2920   -3.2950    3.2930 c3        1 MOL      0.329562
     98 C32         0.0590   -3.0240    4.2420 c3        1 MOL     -0.051706
     99 C33         2.3060   -2.2180    3.5590 c3        1 MOL     -0.654956
    100 C34         0.3410   -3.0170    5.7350 c3        1 MOL     -0.289017
    101 H42        -0.2980   -4.8320    2.0420 hn        1 MOL      0.256052
    102 H43         0.6750   -2.0780    1.6170 h1        1 MOL      0.024851
    103 H44         1.6050   -4.3290    3.4070 hc        1 MOL     -0.019774
    104 H45        -0.7420   -3.7170    4.0100 hc        1 MOL      0.034148
    105 H46        -0.3810   -2.0570    4.0210 hc        1 MOL      0.034148
    106 H47         2.6810   -2.2050    4.5870 hc        1 MOL      0.127615
    107 H48         3.1490   -2.4040    2.8990 hc        1 MOL      0.127615
    108 H49         1.9450   -1.2130    3.3270 hc        1 MOL      0.127615
    109 H50        -0.5370   -2.8740    6.3600 hc        1 MOL      0.079499
    110 H51         0.9200   -3.9150    5.9370 hc        1 MOL      0.079499
    111 H52         1.0150   -2.2480    6.1240 hc        1 MOL      0.079499
    112 N10         2.6930   -2.5800    0.2940 n         1 MOL     -0.028070
    113 C35         3.8550   -2.7620   -0.5950 c3        1 MOL      0.006667
    114 C36         5.1730   -2.4000    0.0960 c         1 MOL      0.213525
    115 O17         5.2140   -1.7060    1.0840 o         1 MOL     -0.281423
    116 C37         3.7230   -2.0470   -1.8900 c3        1 MOL      0.476618
    117 C38         2.6660   -2.7010   -2.7480 c3        1 MOL     -0.537296
    118 O18         3.3550   -0.7430   -1.6200 oh        1 MOL     -0.679518
    119 H53         2.3800   -1.6210    0.2750 hn        1 MOL      0.302391
    120 H54         3.9590   -3.7960   -0.9390 h1        1 MOL      0.033928
    121 H55         4.7050   -2.1420   -2.3500 h1        1 MOL     -0.051162
    122 H56         2.4360   -0.7530   -1.3320 ho        1 MOL      0.435121
    123 H57         1.8170   -2.9510   -2.1120 hc        1 MOL      0.120566
    124 H58         2.3660   -1.9700   -3.4930 hc        1 MOL      0.120566
    125 H59         3.0790   -3.6110   -3.1820 hc        1 MOL      0.120566
    126 N11         6.3360   -2.8310   -0.3210 n         1 MOL     -0.297684
    127 C39         7.6790   -2.3210    0.0940 c3        1 MOL     -0.015162
    128 C40         7.6730   -0.7510    0.2540 c         1 MOL      0.227903
    129 O19         8.0700   -0.3010    1.3570 o         1 MOL     -0.472394
    130 C41         8.7110   -2.6620   -0.9950 c3        1 MOL      0.211592
    131 C42         9.0480   -4.1480   -0.8240 c3        1 MOL     -0.401122
    132 O20         8.3370   -2.3300   -2.3480 oh        1 MOL     -0.641944
    133 H60         6.2480   -3.5520   -1.0200 hn        1 MOL      0.265155
    134 H61         7.8770   -2.8150    1.0490 h1        1 MOL      0.141354
    135 H62         9.6500   -2.1790   -0.7280 h1        1 MOL      0.058185
    136 H63         9.0950   -2.6600   -2.8360 ho        1 MOL      0.432429
    137 H64         8.2220   -4.8360   -1.0020 hc        1 MOL      0.114832
    138 H65         9.8500   -4.3280   -1.5470 hc        1 MOL      0.114832
    139 H66         9.3850   -4.3360    0.1920 hc        1 MOL      0.114832
    140 N12         7.1750   -0.0010   -0.7250 n         1 MOL     -0.027684
    141 C43         7.2160    1.4610   -0.7560 c3        1 MOL     -0.102459
    142 C44         6.1390    2.0960    0.1480 c         1 MOL      0.396326
    143 O21         6.2960    3.3040    0.5640 o         1 MOL     -0.537984
    144 C45         7.1140    1.9910   -2.1980 c3        1 MOL     -0.176965
    145 C46         8.4970    1.8780   -2.8380 c3        1 MOL      0.307813
    146 C47         8.5380    2.3450   -4.3100 c3        1 MOL     -0.168881
    147 C48         8.2300    3.8200   -4.3790 c3        1 MOL      0.108425
    148 N13         8.9780    4.5250   -5.4830 n4        1 MOL     -0.348308
    149 H67         6.9670   -0.4760   -1.5970 hn        1 MOL      0.258133
    150 H68         8.1930    1.8380   -0.4410 h1        1 MOL      0.101913
    151 H69         6.7880    3.0300   -2.1310 hc        1 MOL      0.039414
    152 H70         6.4380    1.3210   -2.7170 hc        1 MOL      0.039414
    153 H71         8.8710    0.8580   -2.7420 hc        1 MOL     -0.057101
    154 H72         9.2450    2.4270   -2.2670 hc        1 MOL     -0.057101
    155 H73         7.8210    1.7600   -4.8980 hc        1 MOL      0.047462
    156 H74         9.5560    2.1950   -4.6730 hc        1 MOL      0.047462
    157 H75         8.5900    4.2860   -3.4600 hx        1 MOL      0.084621
    158 H76         7.1740    4.0810   -4.4500 hx        1 MOL      0.084621
    159 H77         8.8920    5.5250   -5.5680 hn        1 MOL      0.275861
    160 H78         9.9620    4.3050   -5.4250 hn        1 MOL      0.275861
    161 H79         8.5710    4.2600   -6.3630 hn        1 MOL      0.275861
    162 N14         5.1560    1.2910    0.4910 n         1 MOL     -0.040096
    163 C49         4.2020    1.7010    1.5560 c3        1 MOL     -0.060537
    164 C50         4.7340    1.4590    2.9950 c         1 MOL      0.445823
    165 O22         4.6650    2.3680    3.8060 o         1 MOL     -0.536759
    166 C51         2.8720    0.9550    1.3410 c3        1 MOL     -0.011562
    167 C52         2.0920    1.7040    0.2780 c3        1 MOL     -0.429687
    168 C53         0.8170    0.9380   -0.1640 c         1 MOL      1.132040
    169 O23         0.8420   -0.3100   -0.4940 o         1 MOL     -0.931442
    170 O24        -0.2940    1.5260   -0.2640 o         1 MOL     -0.931442
    171 H80         5.2190    0.3320    0.1550 hn        1 MOL      0.050218
    172 H81         3.9010    2.7460    1.4580 h1        1 MOL      0.089053
    173 H82         2.3460    1.0170    2.2970 hc        1 MOL      0.051380
    174 H83         3.0910   -0.0890    1.1050 hc        1 MOL      0.051380
    175 H84         2.7460    1.7840   -0.5990 hc        1 MOL      0.095841
    176 H85         1.8320    2.6720    0.7110 hc        1 MOL      0.095841
    177 N15         5.3960    0.3200    3.2650 n         1 MOL     -0.123593
    178 C54         6.1730    0.0900    4.5170 c3        1 MOL     -0.303411
    179 H86         5.5300   -0.3780    5.2620 h1        1 MOL      0.117952
    180 H87         7.0180   -0.5640    4.3050 h1        1 MOL      0.117952
    181 H88         6.5370    1.0440    4.9000 h1        1 MOL      0.117952
    182 H89         5.4950   -0.3880    2.5510 hn        1 MOL      0.153130
    183 Ca1        -1.5870   -0.3640   -1.4180 Ca        1 MOL      1.703515
    184 O25         0.3720   -0.2260   -3.4020 oh        1 MOL     -0.777373
    185 H90         0.5100    0.6210   -3.8240 ho        1 MOL      0.388082
    186 H91         0.3680   -0.8570   -4.1130 ho        1 MOL      0.388082
    187 O26        -0.7420   -2.7310   -2.4110 oh        1 MOL     -0.777373
    188 H92        -0.7630   -3.6320   -2.0960 ho        1 MOL      0.388082
    189 H93        -0.5530   -2.8130   -3.3430 ho        1 MOL      0.388082
@<TRIPOS>BOND
     1    1    2 1   
     2    1    4 1   
     3    1    5 1   
     4    1    6 1   
     5    2    3 2   
     6    2    7 1   
     7    7    8 1   
     8    7   15 1   
     9    8    9 1   
    10    8   11 1   
    11    8   16 1   
    12    9   10 2   
    13    9   19 1   
    14   11   12 1   
    15   11   17 1   
    16   11   18 1   
    17   12   13 1   
    18   12   14 1   
    19   19   20 1   
    20   19   28 1   
    21   20   21 1   
    22   20   23 1   
    23   20   29 1   
    24   21   22 2   
    25   21   41 1   
    26   23   24 1   
    27   23   30 1   
    28   23   31 1   
    29   24   25 1   
    30   24   32 1   
    31   24   33 1   
    32   25   26 1   
    33   25   34 1   
    34   25   35 1   
    35   26   27 1   
    36   26   36 1   
    37   26   37 1   
    38   27   38 1   
    39   27   39 1   
    40   27   40 1   
    41   41   42 1   
    42   41   49 1   
    43   42   43 1   
    44   42   45 1   
    45   42   50 1   
    46   43   44 2   
    47   43   53 1   
    48   45   46 1   
    49   45   51 1   
    50   45   52 1   
    51   46   47 1   
    52   46   48 1   
    53   53   54 1   
    54   53   57 1   
    55   54   55 1   
    56   54   58 1   
    57   54   59 1   
    58   55   56 2   
    59   55   60 1   
    60   60   61 1   
    61   60   68 1   
    62   61   62 1   
    63   61   64 1   
    64   61   69 1   
    65   62   63 2   
    66   62   72 1   
    67   64   65 1   
    68   64   70 1   
    69   64   71 1   
    70   65   66 1   
    71   65   67 1   
    72   72   73 1   
    73   72   76 1   
    74   73   74 1   
    75   73   77 1   
    76   73   78 1   
    77   74   75 2   
    78   74   79 1   
    79   79   80 1   
    80   79   86 1   
    81   80   81 1   
    82   80   83 1   
    83   80   87 1   
    84   81   82 2   
    85   81   93 1   
    86   83   84 1   
    87   83   85 1   
    88   83   88 1   
    89   84   90 1   
    90   84   91 1   
    91   84   92 1   
    92   85   89 1   
    93   93   94 1   
    94   93  101 1   
    95   94   95 1   
    96   94   97 1   
    97   94  102 1   
    98   95   96 2   
    99   95  112 1   
   100   97   98 1   
   101   97   99 1   
   102   97  103 1   
   103   98  100 1   
   104   98  104 1   
   105   98  105 1   
   106   99  106 1   
   107   99  107 1   
   108   99  108 1   
   109  100  109 1   
   110  100  110 1   
   111  100  111 1   
   112  112  113 1   
   113  112  119 1   
   114  113  114 1   
   115  113  116 1   
   116  113  120 1   
   117  114  115 2   
   118  114  126 1   
   119  116  117 1   
   120  116  118 1   
   121  116  121 1   
   122  117  123 1   
   123  117  124 1   
   124  117  125 1   
   125  118  122 1   
   126  126  127 1   
   127  126  133 1   
   128  127  128 1   
   129  127  130 1   
   130  127  134 1   
   131  128  129 2   
   132  128  140 1   
   133  130  131 1   
   134  130  132 1   
   135  130  135 1   
   136  131  137 1   
   137  131  138 1   
   138  131  139 1   
   139  132  136 1   
   140  140  141 1   
   141  140  149 1   
   142  141  142 1   
   143  141  144 1   
   144  141  150 1   
   145  142  143 2   
   146  142  162 1   
   147  144  145 1   
   148  144  151 1   
   149  144  152 1   
   150  145  146 1   
   151  145  153 1   
   152  145  154 1   
   153  146  147 1   
   154  146  155 1   
   155  146  156 1   
   156  147  148 1   
   157  147  157 1   
   158  147  158 1   
   159  148  159 1   
   160  148  160 1   
   161  148  161 1   
   162  162  163 1   
   163  162  171 1   
   164  163  164 1   
   165  163  166 1   
   166  163  172 1   
   167  164  165 2   
   168  164  177 1   
   169  166  167 1   
   170  166  173 1   
   171  166  174 1   
   172  167  168 1   
   173  167  175 1   
   174  167  176 1   
   175  168  169 1   
   176  168  170 1   
   177  177  178 1   
   178  177  182 1   
   179  178  179 1   
   180  178  180 1   
   181  178  181 1   
   182  184  185 1   
   183  184  186 1   
   184  187  188 1   
   185  187  189 1   
@<TRIPOS>SUBSTRUCTURE
     1 MOL         1 TEMP              0 ****  ****    0 ROOT
