@<TRIPOS>MOLECULE
MOL
  179   176     1     0     0
SMALL
resp


@<TRIPOS>ATOM
      1 C1          1.2620    3.9970    4.5570 c3        1 MOL     -0.301379
      2 C2          0.6860    3.3420    3.3110 c         1 MOL      0.660159
      3 O1          1.2990    3.4400    2.2380 o         1 MOL     -0.579279
      4 H1          1.2930    3.2690    5.3680 hc        1 MOL      0.071249
      5 H2          2.2720    4.3500    4.3490 hc        1 MOL      0.071249
      6 H3          0.6350    4.8390    4.8490 hc        1 MOL      0.071249
      7 N1         -0.5490    2.9340    3.3370 n         1 MOL     -0.483443
      8 C3         -1.3670    2.6560    2.1300 c3        1 MOL      0.019127
      9 C4         -1.9260    3.8930    1.4010 c         1 MOL      0.451972
     10 O2         -3.1050    4.2670    1.5470 o         1 MOL     -0.463452
     11 C5         -2.3960    1.5710    2.4110 c3        1 MOL      0.050730
     12 C6         -3.2460    1.2440    1.1410 c         1 MOL      0.485317
     13 O3         -2.7450    1.3690    0.0050 o         1 MOL     -0.644621
     14 O4         -4.3200    0.6480    1.3430 o         1 MOL     -0.644621
     15 H4         -1.0190    2.8710    4.2300 hn        1 MOL      0.286729
     16 H5         -0.6130    2.1320    1.5350 h1        1 MOL      0.050839
     17 H6         -3.0650    1.8010    3.2510 hc        1 MOL      0.005823
     18 H7         -1.9220    0.6780    2.8080 hc        1 MOL      0.005823
     19 N2         -1.0680    4.6960    0.7240 n         1 MOL     -0.446622
     20 C7         -1.4530    5.9690    0.0260 c3        1 MOL      0.207602
     21 C8         -2.5970    5.8890   -1.1100 c         1 MOL      0.340813
     22 O5         -3.3160    6.8450   -1.4140 o         1 MOL     -0.528993
     23 C9         -0.2080    6.5760   -0.5610 c3        1 MOL     -0.247292
     24 C10         0.9520    6.8860    0.4790 c3        1 MOL      0.084170
     25 C11         0.6630    7.8580    1.5640 c3        1 MOL     -0.018978
     26 C12         1.9640    8.3650    2.2510 c3        1 MOL     -0.056927
     27 N3          1.6480    9.1520    3.4310 n4        1 MOL     -0.169898
     28 H8         -0.1350    4.3450    0.5610 hn        1 MOL      0.370250
     29 H9         -1.7670    6.8070    0.6490 h1        1 MOL      0.002088
     30 H10        -0.4460    7.4640   -1.1560 hc        1 MOL      0.086347
     31 H11         0.1540    5.8480   -1.2850 hc        1 MOL      0.086347
     32 H12         1.8310    7.1300   -0.1230 hc        1 MOL      0.013601
     33 H13         1.2980    6.0080    1.0220 hc        1 MOL      0.013601
     34 H14         0.0110    7.4220    2.3170 hc        1 MOL      0.024676
     35 H15         0.2430    8.7840    1.1390 hc        1 MOL      0.024676
     36 H16         2.5030    8.8750    1.4540 hx        1 MOL      0.103076
     37 H17         2.5500    7.4990    2.5400 hx        1 MOL      0.103076
     38 H18         2.3360    9.8060    3.7660 hn        1 MOL      0.281244
     39 H19         0.8290    9.7000    3.2540 hn        1 MOL      0.281244
     40 H20         1.4090    8.6710    4.2850 hn        1 MOL      0.281244
     41 N4         -2.7150    4.7110   -1.6810 n         1 MOL     -0.063296
     42 C13        -3.7160    4.3860   -2.6550 c3        1 MOL      0.003880
     43 C14        -5.0190    3.7440   -2.0270 c         1 MOL      0.346805
     44 O6         -6.0850    3.6840   -2.6680 o         1 MOL     -0.530284
     45 C15        -3.1380    3.4690   -3.7240 c3        1 MOL     -0.280135
     46 C16        -2.4280    2.2610   -3.1590 c         1 MOL      0.839659
     47 O7         -2.9040    1.0830   -3.2900 o         1 MOL     -0.740644
     48 O8         -1.2760    2.3840   -2.5250 o         1 MOL     -0.740644
     49 H21        -1.9220    4.0970   -1.5530 hn        1 MOL      0.080229
     50 H22        -4.0110    5.2790   -3.2060 h1        1 MOL      0.105818
     51 H23        -2.4270    3.9970   -4.3640 hc        1 MOL      0.079769
     52 H24        -3.9110    3.0660   -4.3700 hc        1 MOL      0.079769
     53 N5         -4.9590    3.3410   -0.7710 n         1 MOL      0.057396
     54 C17        -6.1020    2.7540   -0.0970 c3        1 MOL     -0.389160
     55 C18        -6.5000    1.3440   -0.4710 c         1 MOL      0.645299
     56 O9         -7.6530    1.0190   -0.1780 o         1 MOL     -0.621427
     57 H25        -4.0720    3.3930   -0.2790 hn        1 MOL      0.012911
     58 H26        -6.9910    3.3540   -0.2990 h1        1 MOL      0.155901
     59 H27        -5.8670    2.8010    0.9620 h1        1 MOL      0.155901
     60 N6         -5.7220    0.5400   -1.1320 n         1 MOL     -0.194411
     61 C19        -6.1690   -0.7470   -1.7300 c3        1 MOL     -0.084594
     62 C20        -6.3410   -1.7970   -0.6260 c         1 MOL      0.323839
     63 O10        -6.7270   -2.8810   -0.9940 o         1 MOL     -0.490408
     64 C21        -5.1700   -1.3070   -2.8290 c3        1 MOL     -0.126987
     65 C22        -4.0030   -2.0630   -2.2470 c         1 MOL      0.452807
     66 N7         -3.7020   -3.1970   -2.9000 n         1 MOL     -0.666964
     67 O11        -3.3170   -1.6080   -1.3550 o         1 MOL     -0.344542
     68 H28        -4.7300    0.7570   -1.1080 hn        1 MOL      0.097305
     69 H29        -7.1630   -0.5380   -2.1200 h1        1 MOL      0.132618
     70 H30        -4.8530   -0.3890   -3.3310 hc        1 MOL      0.076697
     71 H31        -5.7170   -1.9150   -3.5430 hc        1 MOL      0.076697
     72 H32        -4.2130   -3.4540   -3.7320 hn        1 MOL      0.340631
     73 H33        -2.7860   -3.5250   -2.6610 hn        1 MOL      0.340631
     74 N8         -5.9700   -1.4600    0.5880 n         1 MOL     -0.043881
     75 C23        -5.8700   -2.3660    1.7400 c3        1 MOL     -0.547232
     76 C24        -4.5010   -3.0140    2.0190 c         1 MOL      0.858703
     77 O12        -4.4220   -3.8530    2.8730 o         1 MOL     -0.600619
     78 H34        -5.8190   -0.4950    0.8510 hn        1 MOL      0.261466
     79 H35        -6.5900   -3.1460    1.5140 h1        1 MOL      0.180592
     80 H36        -6.0930   -1.8300    2.6620 h1        1 MOL      0.180592
     81 N9         -3.4410   -2.5300    1.4430 n         1 MOL     -0.717259
     82 C25        -2.2370   -3.3600    1.4470 c3        1 MOL      0.268175
     83 C26        -0.9690   -2.5580    1.1670 c         1 MOL      0.459269
     84 O13        -1.0350   -1.4560    0.5800 o         1 MOL     -0.582603
     85 C27        -2.4120   -4.4770    0.3800 c3        1 MOL     -0.065934
     86 C28        -3.3860   -5.5970    0.6770 ca        1 MOL      0.069010
     87 C29        -4.5500   -5.8740   -0.1320 ca        1 MOL     -0.204474
     88 C30        -3.1480   -6.4420    1.7700 ca        1 MOL     -0.204474
     89 C31        -5.3260   -6.9800    0.0910 ca        1 MOL     -0.196900
     90 C32        -4.0640   -7.4310    2.1610 ca        1 MOL     -0.196900
     91 C33        -5.1010   -7.7770    1.2700 ca        1 MOL      0.260606
     92 O14        -5.9780   -8.8210    1.4510 oh        1 MOL     -0.465335
     93 H37        -3.4630   -1.8020    0.7420 hn        1 MOL      0.474232
     94 H38        -2.2200   -3.8260    2.4250 h1        1 MOL      0.018170
     95 H39        -1.3850   -4.8370    0.3310 hc        1 MOL     -0.004701
     96 H40        -2.5100   -4.0640   -0.6250 hc        1 MOL     -0.004701
     97 H41        -4.8330   -5.1030   -0.8360 ha        1 MOL      0.135410
     98 H42        -2.4260   -6.2290    2.5330 ha        1 MOL      0.135410
     99 H43        -6.2610   -7.1320   -0.4280 ha        1 MOL      0.143332
    100 H44        -3.9980   -7.9560    3.1020 ha        1 MOL      0.143332
    101 H45        -5.7290   -9.3930    2.1810 ho        1 MOL      0.350060
    102 N10         0.2040   -3.1180    1.6330 n         1 MOL     -0.484243
    103 C34         1.5340   -2.4440    1.6880 c3        1 MOL     -0.015032
    104 C35         2.5110   -3.3790    1.0370 c         1 MOL      0.632000
    105 O15         2.7510   -4.3830    1.6330 o         1 MOL     -0.534185
    106 C36         1.9450   -2.0700    3.1960 c3        1 MOL     -0.046676
    107 C37         1.0100   -0.8620    3.6710 c3        1 MOL      0.164314
    108 C38         3.5190   -1.8010    3.2340 c3        1 MOL     -0.048897
    109 C39         1.4520   -0.3100    5.0050 c3        1 MOL     -0.297020
    110 H46         0.1030   -3.9770    2.1420 hn        1 MOL      0.297477
    111 H47         1.5360   -1.5230    1.1000 h1        1 MOL      0.023139
    112 H48         1.8130   -2.8920    3.9030 hc        1 MOL      0.053981
    113 H49         0.0500   -1.3290    3.8770 hc        1 MOL      0.020510
    114 H50         0.8910   -0.0270    2.9800 hc        1 MOL      0.020510
    115 H51         4.0390   -2.7140    2.9400 hc        1 MOL      0.014645
    116 H52         3.8200   -1.0270    2.5260 hc        1 MOL      0.014645
    117 H53         3.8770   -1.4810    4.2080 hc        1 MOL      0.014645
    118 H54         2.3920    0.2000    4.8030 hc        1 MOL      0.063061
    119 H55         0.6350    0.3080    5.3720 hc        1 MOL      0.063061
    120 H56         1.5920   -1.1340    5.7140 hc        1 MOL      0.063061
    121 N11         3.1090   -3.0400   -0.1470 n         1 MOL     -0.488776
    122 C40         4.2430   -3.7370   -0.6880 c3        1 MOL      0.171694
    123 C41         5.5310   -3.1570   -0.0240 c         1 MOL      0.528448
    124 O16         5.4960   -2.1220    0.6400 o         1 MOL     -0.414301
    125 C42         4.3280   -3.7050   -2.2540 c3        1 MOL     -0.241265
    126 O17         4.6750   -2.3540   -2.6930 oh        1 MOL     -0.446282
    127 H57         2.7860   -2.1840   -0.6020 hn        1 MOL      0.261798
    128 H58         4.1120   -4.7490   -0.2840 h1        1 MOL      0.034770
    129 H59         3.3510   -4.0440   -2.5990 h1        1 MOL      0.127437
    130 H60         5.0600   -4.4940   -2.4420 h1        1 MOL      0.127437
    131 H61         4.7820   -2.4020   -3.6570 ho        1 MOL      0.374688
    132 N12         6.7170   -3.8160   -0.1820 n         1 MOL     -0.622377
    133 C43         8.0220   -3.3050    0.3610 c3        1 MOL      0.275341
    134 C44         8.3730   -1.9710   -0.4590 c         1 MOL      0.279200
    135 O18         8.8780   -1.0070    0.1580 o         1 MOL     -0.462123
    136 C45         9.0420   -4.3800    0.1590 c3        1 MOL     -0.155976
    137 H62         6.7000   -4.5910   -0.8340 hn        1 MOL      0.310159
    138 H63         7.9690   -3.1300    1.4310 h1        1 MOL      0.065752
    139 H64         9.9060   -4.2530    0.8240 hc        1 MOL      0.046469
    140 H65         8.6170   -5.3670    0.3660 hc        1 MOL      0.046469
    141 H66         9.3440   -4.4330   -0.8850 hc        1 MOL      0.046469
    142 N13         8.0930   -1.9400   -1.7750 n         1 MOL     -0.233948
    143 C46         8.2860   -0.7540   -2.6200 c3        1 MOL      0.048712
    144 C47         7.6040    0.5090   -2.1110 c         1 MOL      0.412234
    145 O19         8.1750    1.6190   -2.0810 o         1 MOL     -0.520498
    146 C48         7.8190   -1.1230   -4.0840 c3        1 MOL     -0.317808
    147 H67         7.9500   -2.8140   -2.2580 hn        1 MOL      0.246221
    148 H68         9.3420   -0.4990   -2.7100 h1        1 MOL      0.082435
    149 H69         7.8640   -0.2350   -4.7200 hc        1 MOL      0.090254
    150 H70         8.3560   -1.9860   -4.4740 hc        1 MOL      0.090254
    151 H71         6.7630   -1.3910   -4.0820 hc        1 MOL      0.090254
    152 N14         6.3630    0.3520   -1.7040 n         1 MOL     -0.066278
    153 C49         5.6030    1.4580   -1.1330 c3        1 MOL     -0.152190
    154 C50         5.9150    1.8250    0.3150 c         1 MOL      0.583582
    155 O20         5.8530    3.0130    0.6480 o         1 MOL     -0.597219
    156 C51         4.1240    1.3580   -1.3100 c3        1 MOL     -0.077373
    157 C52         3.2980    0.3640   -0.4880 c3        1 MOL      0.189912
    158 C53         1.8800    0.3020   -0.9810 c         1 MOL      0.765259
    159 O21         1.5740   -0.4810   -1.9280 o         1 MOL     -0.797948
    160 O22         1.0190    1.0950   -0.5440 o         1 MOL     -0.797948
    161 H72         5.8740   -0.5160   -1.8340 hn        1 MOL      0.099906
    162 H73         5.8480    2.3620   -1.6880 h1        1 MOL      0.106223
    163 H74         3.8500    1.2600   -2.3580 hc        1 MOL      0.027390
    164 H75         3.7360    2.3360   -1.0230 hc        1 MOL      0.027390
    165 H76         3.3150    0.6180    0.5660 hc        1 MOL     -0.048267
    166 H77         3.7560   -0.6190   -0.5980 hc        1 MOL     -0.048267
    167 N15         6.2890    0.9140    1.2140 n         1 MOL     -0.150408
    168 C54         7.0010    1.1420    2.4320 c3        1 MOL     -0.262794
    169 H78         8.0680    1.0030    2.2600 h1        1 MOL      0.107082
    170 H79         6.8190    2.1610    2.7740 h1        1 MOL      0.107082
    171 H80         6.6600    0.4370    3.1900 h1        1 MOL      0.107082
    172 H81         6.3210    0.0300    0.7430 hn        1 MOL      0.147106
    173 Ca1        -1.1570    0.1030   -1.5340 Ca        1 MOL      1.711838
    174 O23        -0.2500    0.2280   -4.2260 oh        1 MOL     -0.821165
    175 H82         0.3260   -0.5230   -4.3880 ho        1 MOL      0.401452
    176 H83         0.0760    0.9140   -4.8030 ho        1 MOL      0.401452
    177 O24        -0.8550   -2.4830   -2.5950 oh        1 MOL     -0.821165
    178 H84        -0.6960   -3.3380   -2.1970 ho        1 MOL      0.401452
    179 H85        -0.1570   -2.3860   -3.2450 ho        1 MOL      0.401452
@<TRIPOS>BOND
     1    1    2 1   
     2    1    4 1   
     3    1    5 1   
     4    1    6 1   
     5    2    3 2   
     6    2    7 1   
     7    7    8 1   
     8    7   15 1   
     9    8    9 1   
    10    8   11 1   
    11    8   16 1   
    12    9   10 2   
    13    9   19 1   
    14   11   12 1   
    15   11   17 1   
    16   11   18 1   
    17   12   13 1   
    18   12   14 1   
    19   19   20 1   
    20   19   28 1   
    21   20   21 1   
    22   20   23 1   
    23   20   29 1   
    24   21   22 2   
    25   21   41 1   
    26   23   24 1   
    27   23   30 1   
    28   23   31 1   
    29   24   25 1   
    30   24   32 1   
    31   24   33 1   
    32   25   26 1   
    33   25   34 1   
    34   25   35 1   
    35   26   27 1   
    36   26   36 1   
    37   26   37 1   
    38   27   38 1   
    39   27   39 1   
    40   27   40 1   
    41   41   42 1   
    42   41   49 1   
    43   42   43 1   
    44   42   45 1   
    45   42   50 1   
    46   43   44 2   
    47   43   53 1   
    48   45   46 1   
    49   45   51 1   
    50   45   52 1   
    51   46   47 1   
    52   46   48 1   
    53   53   54 1   
    54   53   57 1   
    55   54   55 1   
    56   54   58 1   
    57   54   59 1   
    58   55   56 2   
    59   55   60 1   
    60   60   61 1   
    61   60   68 1   
    62   61   62 1   
    63   61   64 1   
    64   61   69 1   
    65   62   63 2   
    66   62   74 1   
    67   64   65 1   
    68   64   70 1   
    69   64   71 1   
    70   65   66 1   
    71   65   67 2   
    72   66   72 1   
    73   66   73 1   
    74   74   75 1   
    75   74   78 1   
    76   75   76 1   
    77   75   79 1   
    78   75   80 1   
    79   76   77 2   
    80   76   81 1   
    81   81   82 1   
    82   81   93 1   
    83   82   83 1   
    84   82   85 1   
    85   82   94 1   
    86   83   84 2   
    87   83  102 1   
    88   85   86 1   
    89   85   95 1   
    90   85   96 1   
    91   86   87 ar  
    92   86   88 ar  
    93   87   89 ar  
    94   87   97 1   
    95   88   90 ar  
    96   88   98 1   
    97   89   91 ar  
    98   89   99 1   
    99   90   91 ar  
   100   90  100 1   
   101   91   92 1   
   102   92  101 1   
   103  102  103 1   
   104  102  110 1   
   105  103  104 1   
   106  103  106 1   
   107  103  111 1   
   108  104  105 2   
   109  104  121 1   
   110  106  107 1   
   111  106  108 1   
   112  106  112 1   
   113  107  109 1   
   114  107  113 1   
   115  107  114 1   
   116  108  115 1   
   117  108  116 1   
   118  108  117 1   
   119  109  118 1   
   120  109  119 1   
   121  109  120 1   
   122  121  122 1   
   123  121  127 1   
   124  122  123 1   
   125  122  125 1   
   126  122  128 1   
   127  123  124 2   
   128  123  132 1   
   129  125  126 1   
   130  125  129 1   
   131  125  130 1   
   132  126  131 1   
   133  132  133 1   
   134  132  137 1   
   135  133  134 1   
   136  133  136 1   
   137  133  138 1   
   138  134  135 2   
   139  134  142 1   
   140  136  139 1   
   141  136  140 1   
   142  136  141 1   
   143  142  143 1   
   144  142  147 1   
   145  143  144 1   
   146  143  146 1   
   147  143  148 1   
   148  144  145 2   
   149  144  152 1   
   150  146  149 1   
   151  146  150 1   
   152  146  151 1   
   153  152  153 1   
   154  152  161 1   
   155  153  154 1   
   156  153  156 1   
   157  153  162 1   
   158  154  155 2   
   159  154  167 1   
   160  156  157 1   
   161  156  163 1   
   162  156  164 1   
   163  157  158 1   
   164  157  165 1   
   165  157  166 1   
   166  158  159 1   
   167  158  160 1   
   168  167  168 1   
   169  167  172 1   
   170  168  169 1   
   171  168  170 1   
   172  168  171 1   
   173  174  175 1   
   174  174  176 1   
   175  177  178 1   
   176  177  179 1   
@<TRIPOS>SUBSTRUCTURE
     1 MOL         1 TEMP              0 ****  ****    0 ROOT
