@<TRIPOS>MOLECULE
MOL
  179   176     1     0     0
SMALL
resp


@<TRIPOS>ATOM
      1 C1          1.6140    4.5480    6.3190 c3        1 MOL     -0.336836
      2 C2          1.6340    3.5710    5.0500 c         1 MOL      0.726870
      3 O1          2.6690    3.1220    4.5470 o         1 MOL     -0.575089
      4 H1          0.6380    5.0270    6.3920 hc        1 MOL      0.088047
      5 H2          1.8040    3.9720    7.2250 hc        1 MOL      0.088047
      6 H3          2.3840    5.3100    6.2040 hc        1 MOL      0.088047
      7 N1          0.4380    3.3300    4.4820 n         1 MOL     -0.645668
      8 C3          0.3350    2.8720    3.0760 c3        1 MOL      0.073468
      9 C4          0.5550    4.0230    2.1530 c         1 MOL      0.683813
     10 O2          0.4490    5.1870    2.5510 o         1 MOL     -0.571474
     11 C5         -1.0750    2.1890    3.0150 c3        1 MOL     -0.152161
     12 C6         -1.3870    1.4170    1.6940 c         1 MOL      0.809008
     13 O3         -0.5420    1.4610    0.8100 o         1 MOL     -0.794825
     14 O4         -2.4970    0.8330    1.5120 o         1 MOL     -0.794825
     15 H4         -0.3490    3.7590    4.9600 hn        1 MOL      0.329483
     16 H5          1.1010    2.1340    2.8220 h1        1 MOL      0.007150
     17 H6         -1.8630    2.9140    3.2420 hc        1 MOL      0.050621
     18 H7         -1.2700    1.3770    3.7160 hc        1 MOL      0.050621
     19 N2          0.9640    3.7340    0.9160 n         1 MOL     -0.536814
     20 C7          1.3900    4.8260   -0.0270 c3        1 MOL     -0.104659
     21 C8          0.1970    5.2580   -0.9510 c         1 MOL      0.529626
     22 O5          0.2110    6.3590   -1.5030 o         1 MOL     -0.588371
     23 C9          2.6510    4.3560   -0.8660 c3        1 MOL      0.062855
     24 C10         3.1350    5.4980   -1.7770 c3        1 MOL      0.155271
     25 C11         4.3450    5.0830   -2.6660 c3        1 MOL     -0.005024
     26 C12         5.0120    6.2360   -3.5170 c3        1 MOL     -0.173625
     27 N3          4.1370    6.6710   -4.5800 n4        1 MOL     -0.182544
     28 H8          0.9940    2.7580    0.6730 hn        1 MOL      0.441467
     29 H9          1.6370    5.6830    0.5980 h1        1 MOL      0.138048
     30 H10         2.2540    3.6180   -1.5600 hc        1 MOL      0.005464
     31 H11         3.4320    4.0570   -0.1870 hc        1 MOL      0.005464
     32 H12         3.3780    6.3650   -1.1610 hc        1 MOL     -0.036089
     33 H13         2.3970    5.7810   -2.5260 hc        1 MOL     -0.036089
     34 H14         4.1150    4.2080   -3.2740 hc        1 MOL      0.030479
     35 H15         5.0850    4.7110   -1.9520 hc        1 MOL      0.030479
     36 H16         5.9180    5.8390   -3.9840 hx        1 MOL      0.136959
     37 H17         5.1880    7.0980   -2.8790 hx        1 MOL      0.136959
     38 H18         4.7160    7.0780   -5.2970 hn        1 MOL      0.289585
     39 H19         3.5660    5.9700   -5.0270 hn        1 MOL      0.289585
     40 H20         3.4340    7.3640   -4.3800 hn        1 MOL      0.289585
     41 N4         -0.9270    4.5270   -0.9740 n         1 MOL     -0.305989
     42 C13        -2.1610    4.9240   -1.6990 c3        1 MOL      0.011077
     43 C14        -3.3930    4.7700   -0.9130 c         1 MOL      0.502837
     44 O6         -4.4060    5.2850   -1.4080 o         1 MOL     -0.540622
     45 C15        -2.2860    4.1990   -3.0220 c3        1 MOL     -0.301298
     46 C16        -2.2390    2.6410   -2.9790 c         1 MOL      0.753366
     47 O7         -2.1630    2.0430   -4.1190 o         1 MOL     -0.698135
     48 O8         -2.4500    2.0200   -1.8910 o         1 MOL     -0.698135
     49 H21        -0.8920    3.6440   -0.4710 hn        1 MOL      0.198945
     50 H22        -2.0860    6.0050   -1.8570 h1        1 MOL      0.122055
     51 H23        -1.5710    4.5750   -3.7650 hc        1 MOL      0.096136
     52 H24        -3.2540    4.4800   -3.4240 hc        1 MOL      0.096136
     53 N5         -3.3460    4.0340    0.2040 n         1 MOL     -0.235829
     54 C17        -4.4410    3.9220    1.1810 c3        1 MOL     -0.171312
     55 C18        -5.5470    2.9110    0.6130 c         1 MOL      0.621335
     56 O9         -6.6720    3.1020    1.0590 o         1 MOL     -0.573098
     57 H25        -2.5990    3.3480    0.2720 hn        1 MOL      0.073769
     58 H26        -4.9900    4.8430    1.3530 h1        1 MOL      0.113577
     59 H27        -4.0960    3.4160    2.0820 h1        1 MOL      0.113577
     60 N6         -5.2500    1.9540   -0.3500 n         1 MOL     -0.329217
     61 C19        -6.3060    1.2710   -1.0640 c3        1 MOL     -0.021552
     62 C20        -7.0770    0.2720   -0.2070 c         1 MOL      0.382123
     63 O10        -8.0300   -0.3680   -0.6950 o         1 MOL     -0.536685
     64 C21        -5.7190    0.4910   -2.2340 c3        1 MOL     -0.248818
     65 C22        -4.9140   -0.7050   -1.9150 c         1 MOL      0.632720
     66 N7         -5.1250   -1.9000   -2.3280 n         1 MOL     -0.612662
     67 O11        -4.0500   -0.6240   -1.0710 o         1 MOL     -0.638301
     68 H28        -4.2860    1.7460   -0.6050 hn        1 MOL      0.270886
     69 H29        -6.9900    2.0700   -1.3520 h1        1 MOL      0.132480
     70 H30        -5.0650    1.1010   -2.8630 hc        1 MOL      0.102933
     71 H31        -6.5230    0.2130   -2.9150 hc        1 MOL      0.102933
     72 H32        -5.7000   -2.0490   -3.1460 hn        1 MOL      0.306688
     73 H33        -4.6760   -2.7040   -1.9070 hn        1 MOL      0.306688
     74 N8         -6.6570    0.0290    1.0380 n         1 MOL     -0.101105
     75 C23        -7.1450   -0.9950    2.0050 c3        1 MOL     -0.255634
     76 C24        -6.0990   -2.0840    2.3460 c         1 MOL      0.604394
     77 O12        -6.3680   -2.7780    3.3090 o         1 MOL     -0.569826
     78 H34        -6.0530    0.7660    1.3590 hn        1 MOL      0.186734
     79 H35        -7.9620   -1.5600    1.5580 h1        1 MOL      0.129737
     80 H36        -7.4830   -0.4810    2.9040 h1        1 MOL      0.129737
     81 N9         -4.9760   -2.1920    1.6300 n         1 MOL     -0.352643
     82 C25        -3.8470   -3.1280    2.0440 c3        1 MOL     -0.009328
     83 C26        -2.4450   -2.6330    1.6400 c         1 MOL      0.468449
     84 O13        -2.2950   -2.0380    0.5920 o         1 MOL     -0.348878
     85 C27        -4.1160   -4.5480    1.4990 c3        1 MOL     -0.159455
     86 C28        -4.1020   -4.6580   -0.0040 ca        1 MOL      0.138002
     87 C29        -2.8480   -4.8240   -0.5740 ca        1 MOL     -0.200461
     88 C30        -5.2650   -4.9830   -0.7240 ca        1 MOL     -0.200461
     89 C31        -2.6990   -5.0620   -1.9350 ca        1 MOL     -0.221295
     90 C32        -5.1560   -5.3400   -2.1030 ca        1 MOL     -0.221295
     91 C33        -3.8930   -5.3280   -2.6970 ca        1 MOL      0.306412
     92 O14        -3.7140   -5.8330   -3.9730 oh        1 MOL     -0.534761
     93 H37        -4.8720   -1.5470    0.8570 hn        1 MOL      0.204803
     94 H38        -3.8190   -3.1600    3.1360 h1        1 MOL      0.089545
     95 H39        -5.0900   -4.9020    1.8520 hc        1 MOL      0.074983
     96 H40        -3.3410   -5.2030    1.8880 hc        1 MOL      0.074983
     97 H41        -1.9230   -4.6950   -0.0340 ha        1 MOL      0.161489
     98 H42        -6.2140   -5.0190   -0.1980 ha        1 MOL      0.161489
     99 H43        -1.7200   -5.2000   -2.3830 ha        1 MOL      0.143029
    100 H44        -6.0500   -5.7130   -2.5790 ha        1 MOL      0.143029
    101 H45        -2.8140   -6.1250   -4.0990 ho        1 MOL      0.372487
    102 N10        -1.3890   -2.9370    2.4110 n         1 MOL     -0.581031
    103 C34         0.0330   -2.4530    2.1760 c3        1 MOL      0.280603
    104 C35         0.7310   -3.6270    1.4670 c         1 MOL      0.473387
    105 O15         0.4520   -4.8070    1.7080 o         1 MOL     -0.569853
    106 C36         0.7150   -1.6970    3.3380 c3        1 MOL     -0.037980
    107 C37         1.9310   -0.9360    2.8480 c3        1 MOL      0.468317
    108 C38         1.1390   -2.6170    4.4910 c3        1 MOL     -0.238126
    109 C39         2.4820    0.0910    3.8830 c3        1 MOL     -0.181285
    110 H46        -1.6240   -3.4500    3.2440 hn        1 MOL      0.328140
    111 H47         0.0590   -1.6980    1.3820 h1        1 MOL     -0.060380
    112 H48        -0.0150   -0.9450    3.6370 hc        1 MOL      0.045954
    113 H49         1.7770   -0.3510    1.9460 hc        1 MOL     -0.184934
    114 H50         2.7050   -1.6110    2.4730 hc        1 MOL     -0.184934
    115 H51         1.7750   -2.0770    5.1840 hc        1 MOL      0.050931
    116 H52         0.2350   -3.0080    4.9620 hc        1 MOL      0.050931
    117 H53         1.6210   -3.5250    4.1280 hc        1 MOL      0.050931
    118 H54         3.1150    0.8280    3.4060 hc        1 MOL      0.033307
    119 H55         1.6310    0.5240    4.4130 hc        1 MOL      0.033307
    120 H56         3.1130   -0.4740    4.5670 hc        1 MOL      0.033307
    121 N11         1.6450   -3.2730    0.5850 n         1 MOL     -0.133649
    122 C40         2.5220   -4.1300   -0.1920 c3        1 MOL      0.144839
    123 C41         4.0000   -3.7980    0.0740 c         1 MOL      0.164306
    124 O16         4.2580   -2.6900    0.5260 o         1 MOL     -0.263635
    125 C42         2.0550   -3.9720   -1.6370 c3        1 MOL      0.182946
    126 O17         0.9470   -4.8610   -1.7000 oh        1 MOL     -0.652465
    127 H57         1.7220   -2.2660    0.4650 hn        1 MOL      0.049254
    128 H58         2.3720   -5.1490    0.1550 h1        1 MOL      0.040182
    129 H59         2.8400   -4.3460   -2.2940 h1        1 MOL      0.010267
    130 H60         1.8390   -2.9290   -1.9060 h1        1 MOL      0.010267
    131 H61         1.2540   -5.7030   -2.0380 ho        1 MOL      0.428948
    132 N12         4.9420   -4.7030   -0.2090 n         1 MOL     -0.286201
    133 C43         6.3310   -4.5650    0.2070 c3        1 MOL      0.073304
    134 C44         6.9520   -3.2190   -0.3730 c         1 MOL      0.450248
    135 O18         7.5870   -2.4510    0.4120 o         1 MOL     -0.505170
    136 C45         7.1920   -5.7460   -0.2770 c3        1 MOL     -0.350170
    137 H62         4.6080   -5.5040   -0.7240 hn        1 MOL      0.257070
    138 H63         6.2710   -4.4810    1.2900 h1        1 MOL      0.108640
    139 H64         8.2220   -5.5440   -0.0070 hc        1 MOL      0.110722
    140 H65         6.8040   -6.6500    0.2100 hc        1 MOL      0.110722
    141 H66         7.1430   -5.8510   -1.3610 hc        1 MOL      0.110722
    142 N13         6.7040   -2.8970   -1.6660 n         1 MOL     -0.325681
    143 C46         7.3210   -1.7530   -2.2750 c3        1 MOL      0.056781
    144 C47         6.8600   -0.5120   -1.4330 c         1 MOL      0.453820
    145 O19         7.6180    0.3970   -1.2130 o         1 MOL     -0.515894
    146 C48         6.8500   -1.8310   -3.7290 c3        1 MOL     -0.206487
    147 H67         6.1900   -3.5430   -2.2540 hn        1 MOL      0.222003
    148 H68         8.4120   -1.7260   -2.2270 h1        1 MOL      0.087756
    149 H69         7.2280   -0.9660   -4.2670 hc        1 MOL      0.064083
    150 H70         7.2700   -2.6620   -4.3010 hc        1 MOL      0.064083
    151 H71         5.7760   -1.7980   -3.8490 hc        1 MOL      0.064083
    152 N14         5.5880   -0.4810   -1.0180 n         1 MOL     -0.269376
    153 C49         5.0430    0.6260   -0.2280 c3        1 MOL     -0.072792
    154 C50         5.6850    0.6900    1.1740 c         1 MOL      0.498753
    155 O20         5.9000    1.7910    1.6130 o         1 MOL     -0.540059
    156 C51         3.5290    0.4290   -0.1160 c3        1 MOL     -0.033059
    157 C52         2.8930    0.2340   -1.5250 c3        1 MOL     -0.088064
    158 C53         1.3940    0.1450   -1.3090 c         1 MOL      0.713764
    159 O21         0.9590   -0.7500   -0.5390 o         1 MOL     -0.727782
    160 O22         0.6270    0.9050   -1.9490 o         1 MOL     -0.727782
    161 H72         5.0170   -1.2960   -1.1860 hn        1 MOL      0.144664
    162 H73         5.1750    1.5380   -0.8110 h1        1 MOL      0.067349
    163 H74         3.1110    1.2970    0.3960 hc        1 MOL      0.099502
    164 H75         3.3870   -0.3640    0.6160 hc        1 MOL      0.099502
    165 H76         3.1440   -0.7230   -1.9700 hc        1 MOL      0.007838
    166 H77         3.1880    1.0330   -2.2040 hc        1 MOL      0.007838
    167 N15         5.8640   -0.4580    1.8930 n         1 MOL     -0.074512
    168 C54         6.5740   -0.4590    3.1280 c3        1 MOL     -0.026310
    169 H78         7.3100    0.3440    3.1240 h1        1 MOL      0.032142
    170 H79         5.8730   -0.3060    3.9490 h1        1 MOL      0.032142
    171 H80         7.0810   -1.4160    3.2550 h1        1 MOL      0.032142
    172 H81         5.5090   -1.3500    1.5610 hn        1 MOL      0.116295
    173 Ca1        -1.4820   -0.2230   -1.0090 Ca        1 MOL      1.741387
    174 O23        -0.9200   -2.6720   -1.9650 oh        1 MOL     -0.863807
    175 H82        -0.1990   -3.2810   -1.7770 ho        1 MOL      0.403018
    176 H83        -0.9980   -2.6820   -2.9170 ho        1 MOL      0.403018
    177 O24        -2.0940   -0.7150   -3.6160 oh        1 MOL     -0.863807
    178 H84        -2.0840    0.1750   -3.9740 ho        1 MOL      0.403018
    179 H85        -2.4420   -1.2580   -4.3210 ho        1 MOL      0.403018
@<TRIPOS>BOND
     1    1    2 1   
     2    1    4 1   
     3    1    5 1   
     4    1    6 1   
     5    2    3 2   
     6    2    7 1   
     7    7    8 1   
     8    7   15 1   
     9    8    9 1   
    10    8   11 1   
    11    8   16 1   
    12    9   10 2   
    13    9   19 1   
    14   11   12 1   
    15   11   17 1   
    16   11   18 1   
    17   12   13 1   
    18   12   14 1   
    19   19   20 1   
    20   19   28 1   
    21   20   21 1   
    22   20   23 1   
    23   20   29 1   
    24   21   22 2   
    25   21   41 1   
    26   23   24 1   
    27   23   30 1   
    28   23   31 1   
    29   24   25 1   
    30   24   32 1   
    31   24   33 1   
    32   25   26 1   
    33   25   34 1   
    34   25   35 1   
    35   26   27 1   
    36   26   36 1   
    37   26   37 1   
    38   27   38 1   
    39   27   39 1   
    40   27   40 1   
    41   41   42 1   
    42   41   49 1   
    43   42   43 1   
    44   42   45 1   
    45   42   50 1   
    46   43   44 2   
    47   43   53 1   
    48   45   46 1   
    49   45   51 1   
    50   45   52 1   
    51   46   47 1   
    52   46   48 1   
    53   53   54 1   
    54   53   57 1   
    55   54   55 1   
    56   54   58 1   
    57   54   59 1   
    58   55   56 2   
    59   55   60 1   
    60   60   61 1   
    61   60   68 1   
    62   61   62 1   
    63   61   64 1   
    64   61   69 1   
    65   62   63 2   
    66   62   74 1   
    67   64   65 1   
    68   64   70 1   
    69   64   71 1   
    70   65   66 1   
    71   65   67 2   
    72   66   72 1   
    73   66   73 1   
    74   74   75 1   
    75   74   78 1   
    76   75   76 1   
    77   75   79 1   
    78   75   80 1   
    79   76   77 2   
    80   76   81 1   
    81   81   82 1   
    82   81   93 1   
    83   82   83 1   
    84   82   85 1   
    85   82   94 1   
    86   83   84 2   
    87   83  102 1   
    88   85   86 1   
    89   85   95 1   
    90   85   96 1   
    91   86   87 ar  
    92   86   88 ar  
    93   87   89 ar  
    94   87   97 1   
    95   88   90 ar  
    96   88   98 1   
    97   89   91 ar  
    98   89   99 1   
    99   90   91 ar  
   100   90  100 1   
   101   91   92 1   
   102   92  101 1   
   103  102  103 1   
   104  102  110 1   
   105  103  104 1   
   106  103  106 1   
   107  103  111 1   
   108  104  105 2   
   109  104  121 1   
   110  106  107 1   
   111  106  108 1   
   112  106  112 1   
   113  107  109 1   
   114  107  113 1   
   115  107  114 1   
   116  108  115 1   
   117  108  116 1   
   118  108  117 1   
   119  109  118 1   
   120  109  119 1   
   121  109  120 1   
   122  121  122 1   
   123  121  127 1   
   124  122  123 1   
   125  122  125 1   
   126  122  128 1   
   127  123  124 2   
   128  123  132 1   
   129  125  126 1   
   130  125  129 1   
   131  125  130 1   
   132  126  131 1   
   133  132  133 1   
   134  132  137 1   
   135  133  134 1   
   136  133  136 1   
   137  133  138 1   
   138  134  135 2   
   139  134  142 1   
   140  136  139 1   
   141  136  140 1   
   142  136  141 1   
   143  142  143 1   
   144  142  147 1   
   145  143  144 1   
   146  143  146 1   
   147  143  148 1   
   148  144  145 2   
   149  144  152 1   
   150  146  149 1   
   151  146  150 1   
   152  146  151 1   
   153  152  153 1   
   154  152  161 1   
   155  153  154 1   
   156  153  156 1   
   157  153  162 1   
   158  154  155 2   
   159  154  167 1   
   160  156  157 1   
   161  156  163 1   
   162  156  164 1   
   163  157  158 1   
   164  157  165 1   
   165  157  166 1   
   166  158  159 1   
   167  158  160 1   
   168  167  168 1   
   169  167  172 1   
   170  168  169 1   
   171  168  170 1   
   172  168  171 1   
   173  174  175 1   
   174  174  176 1   
   175  177  178 1   
   176  177  179 1   
@<TRIPOS>SUBSTRUCTURE
     1 MOL         1 TEMP              0 ****  ****    0 ROOT
