@<TRIPOS>MOLECULE
MOL
  179   176     1     0     0
SMALL
resp


@<TRIPOS>ATOM
      1 C1          2.2620    3.5360    4.1890 c3        1 MOL     -0.405828
      2 C2          1.3710    3.2510    2.9530 c         1 MOL      0.709764
      3 O1          1.8340    3.1330    1.8240 o         1 MOL     -0.540749
      4 H1          2.7900    4.4790    4.0460 hc        1 MOL      0.106766
      5 H2          1.6380    3.6000    5.0810 hc        1 MOL      0.106766
      6 H3          2.9860    2.7290    4.3090 hc        1 MOL      0.106766
      7 N1          0.0320    2.9660    3.1790 n         1 MOL     -0.725449
      8 C3         -0.9540    2.6450    2.1180 c3        1 MOL      0.326537
      9 C4         -1.6260    3.8860    1.4660 c         1 MOL      0.346198
     10 O2         -2.7970    4.2650    1.7480 o         1 MOL     -0.483526
     11 C5         -1.9710    1.6210    2.6350 c3        1 MOL     -0.092594
     12 C6         -3.0540    1.2370    1.6100 c         1 MOL      0.586465
     13 O3         -4.1560    0.9860    2.0550 o         1 MOL     -0.643683
     14 O4         -2.7450    1.2750    0.3800 o         1 MOL     -0.643683
     15 H4         -0.2880    2.9300    4.1440 hn        1 MOL      0.346879
     16 H5         -0.3970    2.1970    1.2830 h1        1 MOL     -0.023771
     17 H6         -2.4060    1.9760    3.5780 hc        1 MOL      0.015376
     18 H7         -1.4070    0.7030    2.7850 hc        1 MOL      0.015376
     19 N2         -0.8080    4.5530    0.6570 n         1 MOL     -0.250308
     20 C7         -1.0720    5.9580    0.1230 c3        1 MOL     -0.025530
     21 C8         -1.9990    5.9650   -1.0950 c         1 MOL      0.510416
     22 O5         -2.4700    7.0760   -1.3190 o         1 MOL     -0.569478
     23 C9          0.2860    6.6750   -0.0910 c3        1 MOL     -0.081272
     24 C10         1.1720    6.9490    1.1370 c3        1 MOL      0.133957
     25 C11         2.5310    7.5410    0.6980 c3        1 MOL      0.075609
     26 C12         3.6590    7.7860    1.7350 c3        1 MOL     -0.156035
     27 N3          3.2660    8.8790    2.6370 n4        1 MOL     -0.259838
     28 H8          0.0800    4.1410    0.4320 hn        1 MOL      0.281152
     29 H9         -1.6040    6.4790    0.9190 h1        1 MOL      0.109912
     30 H10         0.0380    7.6580   -0.4990 hc        1 MOL      0.047489
     31 H11         0.8360    6.2130   -0.9060 hc        1 MOL      0.047489
     32 H12         1.3760    6.0380    1.6960 hc        1 MOL     -0.058777
     33 H13         0.5780    7.5820    1.8030 hc        1 MOL     -0.058777
     34 H14         2.2130    8.4920    0.2530 hc        1 MOL      0.009278
     35 H15         2.8810    6.9470   -0.1480 hc        1 MOL      0.009278
     36 H16         4.4830    8.1010    1.1040 hx        1 MOL      0.148823
     37 H17         3.8570    6.8530    2.2550 hx        1 MOL      0.148823
     38 H18         2.6870    8.6180    3.4250 hn        1 MOL      0.305491
     39 H19         4.0440    9.3500    3.0710 hn        1 MOL      0.305491
     40 H20         2.6800    9.5440    2.1560 hn        1 MOL      0.305491
     41 N4         -2.3640    4.8590   -1.7340 n         1 MOL     -0.311747
     42 C13        -3.5390    4.6920   -2.6260 c3        1 MOL      0.123880
     43 C14        -4.7890    4.2710   -1.8630 c         1 MOL      0.362182
     44 O6         -5.8710    4.3580   -2.4550 o         1 MOL     -0.533713
     45 C15        -3.2480    3.6480   -3.7120 c3        1 MOL     -0.304444
     46 C16        -2.5690    2.3400   -3.2050 c         1 MOL      0.727628
     47 O7         -1.4540    2.3710   -2.7160 o         1 MOL     -0.682636
     48 O8         -3.1840    1.2420   -3.1630 o         1 MOL     -0.682636
     49 H21        -1.9160    3.9900   -1.4910 hn        1 MOL      0.163515
     50 H22        -3.6330    5.6270   -3.1760 h1        1 MOL      0.090538
     51 H23        -2.6650    3.9830   -4.5610 hc        1 MOL      0.082535
     52 H24        -4.1970    3.3370   -4.1400 hc        1 MOL      0.082535
     53 N5         -4.6470    3.8250   -0.6240 n         1 MOL     -0.012374
     54 C17        -5.8520    3.4750    0.2160 c3        1 MOL     -0.202051
     55 C18        -6.4990    2.1460   -0.1710 c         1 MOL      0.480262
     56 O9         -7.6530    1.9970    0.1930 o         1 MOL     -0.609577
     57 H25        -3.7250    3.7900   -0.2200 hn        1 MOL      0.006413
     58 H26        -6.6030    4.2670    0.2590 h1        1 MOL      0.136698
     59 H27        -5.5690    3.4040    1.2660 h1        1 MOL      0.136698
     60 N6         -5.9180    1.1240   -0.7080 n         1 MOL     -0.007342
     61 C19        -6.6250   -0.1200   -1.0500 c3        1 MOL     -0.054891
     62 C20        -6.5450   -1.1910    0.1310 c         1 MOL      0.321508
     63 O10        -7.1410   -2.3080    0.0140 o         1 MOL     -0.520832
     64 C21        -6.1470   -0.6880   -2.3720 c3        1 MOL     -0.202345
     65 C22        -4.9240   -1.6090   -2.1710 c         1 MOL      0.460952
     66 N7         -4.7620   -2.5190   -3.1240 n         1 MOL     -0.721457
     67 O11        -4.0860   -1.3850   -1.3330 o         1 MOL     -0.443689
     68 H28        -4.9570    1.1780   -1.0320 hn        1 MOL      0.031312
     69 H29        -7.6840    0.0180   -1.2250 h1        1 MOL      0.123639
     70 H30        -5.8970    0.1820   -2.9760 hc        1 MOL      0.103318
     71 H31        -6.9500   -1.2960   -2.7770 hc        1 MOL      0.103318
     72 H32        -5.4400   -2.6140   -3.8700 hn        1 MOL      0.365637
     73 H33        -3.9000   -3.0280   -3.0340 hn        1 MOL      0.365637
     74 N8         -6.0210   -0.8710    1.2870 n         1 MOL     -0.118149
     75 C23        -5.9090   -1.7670    2.4160 c3        1 MOL     -0.272475
     76 C24        -4.7050   -2.7130    2.3400 c         1 MOL      0.499588
     77 O12        -4.6410   -3.6350    3.0620 o         1 MOL     -0.531073
     78 H34        -5.9070    0.1080    1.4930 hn        1 MOL      0.278568
     79 H35        -6.8100   -2.3870    2.3760 h1        1 MOL      0.134510
     80 H36        -5.8430   -1.1920    3.3400 h1        1 MOL      0.134510
     81 N9         -3.7650   -2.5890    1.3740 n         1 MOL     -0.044866
     82 C25        -2.5240   -3.3720    1.1660 c3        1 MOL      0.122727
     83 C26        -1.2320   -2.5510    1.1360 c         1 MOL      0.398250
     84 O13        -1.2980   -1.4230    0.7660 o         1 MOL     -0.564478
     85 C27        -2.5730   -4.4160    0.0100 c3        1 MOL      0.257918
     86 C28        -3.4550   -5.6430    0.2620 ca        1 MOL     -0.239620
     87 C29        -2.9120   -6.9220    0.6730 ca        1 MOL      0.002665
     88 C30        -4.8360   -5.5070    0.0530 ca        1 MOL      0.002665
     89 C31        -3.7330   -7.9950    0.9000 ca        1 MOL     -0.368325
     90 C32        -5.6720   -6.6200    0.2100 ca        1 MOL     -0.368325
     91 C33        -5.1270   -7.8450    0.6500 ca        1 MOL      0.434352
     92 O14        -5.9500   -8.8760    0.9120 oh        1 MOL     -0.516858
     93 H37        -3.8470   -1.8270    0.7130 hn        1 MOL      0.034306
     94 H38        -2.4240   -3.9850    2.0700 h1        1 MOL     -0.001640
     95 H39        -1.5950   -4.8560   -0.1920 hc        1 MOL     -0.064811
     96 H40        -2.8820   -3.9020   -0.8990 hc        1 MOL     -0.064811
     97 H41        -1.8520   -7.0580    0.8340 ha        1 MOL      0.100739
     98 H42        -5.2460   -4.5750   -0.2930 ha        1 MOL      0.100739
     99 H43        -3.3220   -8.9170    1.2910 ha        1 MOL      0.171978
    100 H44        -6.7340   -6.4790    0.1340 ha        1 MOL      0.171978
    101 H45        -6.8520   -8.5790    0.8190 ho        1 MOL      0.373056
    102 N10        -0.0640   -3.0390    1.5750 n         1 MOL     -0.349220
    103 C34         1.3030   -2.4860    1.5670 c3        1 MOL     -0.067382
    104 C35         2.3240   -3.5320    0.8510 c         1 MOL      0.550052
    105 O15         2.1240   -4.7680    0.8320 o         1 MOL     -0.543264
    106 C36         1.9110   -1.8480    2.8460 c3        1 MOL      0.061506
    107 C37         2.3230   -2.9040    3.9260 c3        1 MOL      0.020627
    108 C38         0.9070   -0.8110    3.3690 c3        1 MOL     -0.192093
    109 C39         3.2500   -2.1700    4.8860 c3        1 MOL     -0.237465
    110 H46        -0.0560   -3.9230    2.0620 hn        1 MOL      0.232465
    111 H47         1.2330   -1.6020    0.9470 h1        1 MOL      0.191433
    112 H48         2.8040   -1.2920    2.5760 hc        1 MOL      0.038909
    113 H49         2.8530   -3.7670    3.5160 hc        1 MOL      0.036993
    114 H50         1.4320   -3.3140    4.3960 hc        1 MOL      0.036993
    115 H51         1.0920    0.0600    2.7470 hc        1 MOL      0.060924
    116 H52        -0.1130   -1.1710    3.2520 hc        1 MOL      0.060924
    117 H53         1.1260   -0.5710    4.4110 hc        1 MOL      0.060924
    118 H54         3.9820   -1.4810    4.4760 hc        1 MOL      0.052338
    119 H55         2.5900   -1.6380    5.5770 hc        1 MOL      0.052338
    120 H56         3.7080   -2.8990    5.5580 hc        1 MOL      0.052338
    121 N11         3.4700   -2.9970    0.3640 n         1 MOL     -0.491190
    122 C40         4.4320   -3.6770   -0.5250 c3        1 MOL      0.473841
    123 C41         5.8690   -3.2500   -0.2320 c         1 MOL      0.132436
    124 O16         6.0640   -2.1950    0.3610 o         1 MOL     -0.233750
    125 C42         4.0180   -3.5540   -1.9830 c3        1 MOL     -0.504880
    126 O17         4.7240   -2.4880   -2.5190 oh        1 MOL     -0.479141
    127 H57         3.6480   -2.0020    0.4460 hn        1 MOL      0.126881
    128 H58         4.3650   -4.7530   -0.3700 h1        1 MOL     -0.004490
    129 H59         2.9390   -3.4340   -2.0270 h1        1 MOL      0.206251
    130 H60         4.4070   -4.5000   -2.3770 h1        1 MOL      0.206251
    131 H61         4.3560   -2.2520   -3.3720 ho        1 MOL      0.422805
    132 N12         6.9020   -4.0230   -0.7010 n         1 MOL     -0.348689
    133 C43         8.2750   -3.5550   -0.4260 c3        1 MOL      0.109574
    134 C44         8.5000   -2.1760   -0.9730 c         1 MOL      0.401415
    135 O18         9.2770   -1.3260   -0.4330 o         1 MOL     -0.491743
    136 C45         9.3810   -4.4720   -0.9830 c3        1 MOL     -0.188031
    137 H62         6.7760   -4.9160   -1.1520 hn        1 MOL      0.288280
    138 H63         8.2920   -3.4400    0.6580 h1        1 MOL      0.077259
    139 H64         9.5940   -4.1400   -2.0040 hc        1 MOL      0.068168
    140 H65        10.2730   -4.4610   -0.3520 hc        1 MOL      0.068168
    141 H66         9.0250   -5.4960   -0.9730 hc        1 MOL      0.068168
    142 N13         7.8050   -1.9050   -2.1320 n         1 MOL     -0.303353
    143 C46         7.7350   -0.5720   -2.8370 c3        1 MOL      0.060540
    144 C47         7.0550    0.5590   -1.9530 c         1 MOL      0.389972
    145 O19         7.5990    1.6230   -1.7470 o         1 MOL     -0.499429
    146 C48         7.0940   -0.7500   -4.1590 c3        1 MOL     -0.108633
    147 H67         7.3910   -2.6470   -2.6780 hn        1 MOL      0.214149
    148 H68         8.7370   -0.2310   -3.1180 h1        1 MOL      0.065374
    149 H69         7.2750    0.1270   -4.7730 hc        1 MOL      0.029620
    150 H70         7.4800   -1.5690   -4.7560 hc        1 MOL      0.029620
    151 H71         6.0460   -0.9020   -3.9110 hc        1 MOL      0.029620
    152 N14         5.8950    0.2290   -1.3650 n         1 MOL     -0.132068
    153 C49         5.1180    1.1770   -0.5060 c3        1 MOL     -0.368530
    154 C50         5.8760    1.4910    0.7770 c         1 MOL      0.537189
    155 O20         5.7580    2.5350    1.3870 o         1 MOL     -0.570740
    156 C51         3.6410    0.7170   -0.2770 c3        1 MOL      0.252496
    157 C52         2.8980    0.5070   -1.6380 c3        1 MOL      0.009512
    158 C53         1.3570    0.2330   -1.3710 c         1 MOL      0.704334
    159 O21         0.9170   -0.9400   -1.3510 o         1 MOL     -0.724865
    160 O22         0.6230    1.1500   -1.1580 o         1 MOL     -0.724865
    161 H72         5.5840   -0.7180   -1.4770 hn        1 MOL      0.263825
    162 H73         5.1440    2.1510   -1.0010 h1        1 MOL      0.165977
    163 H74         3.2240    1.4360    0.4260 hc        1 MOL     -0.013175
    164 H75         3.6770   -0.2640    0.1980 hc        1 MOL     -0.013175
    165 H76         3.3580   -0.3620   -2.1020 hc        1 MOL     -0.061451
    166 H77         3.0280    1.3620   -2.3010 hc        1 MOL     -0.061451
    167 N15         6.4540    0.4090    1.3690 n         1 MOL     -0.038329
    168 C54         7.2170    0.3860    2.6110 c3        1 MOL     -0.326830
    169 H78         7.7660    1.3210    2.7150 h1        1 MOL      0.116726
    170 H79         6.5360    0.2700    3.4530 h1        1 MOL      0.116726
    171 H80         7.9190   -0.4470    2.5910 h1        1 MOL      0.116726
    172 H81         6.4290   -0.4770    0.8950 hn        1 MOL      0.039600
    173 Ca1        -1.5900   -0.0820   -1.4750 Ca        1 MOL      1.686806
    174 O23        -0.9570   -0.4380   -4.2180 oh        1 MOL     -0.781579
    175 H82        -1.0980   -1.2080   -4.7590 ho        1 MOL      0.381608
    176 H83        -0.1290   -0.0800   -4.5270 ho        1 MOL      0.381608
    177 O24        -1.2340   -2.6050   -2.2140 oh        1 MOL     -0.781579
    178 H84        -1.7470   -3.3300   -2.5840 ho        1 MOL      0.381608
    179 H85        -0.3460   -2.7380   -2.5620 ho        1 MOL      0.381608
@<TRIPOS>BOND
     1    1    2 1   
     2    1    4 1   
     3    1    5 1   
     4    1    6 1   
     5    2    3 2   
     6    2    7 1   
     7    7    8 1   
     8    7   15 1   
     9    8    9 1   
    10    8   11 1   
    11    8   16 1   
    12    9   10 2   
    13    9   19 1   
    14   11   12 1   
    15   11   17 1   
    16   11   18 1   
    17   12   13 1   
    18   12   14 1   
    19   19   20 1   
    20   19   28 1   
    21   20   21 1   
    22   20   23 1   
    23   20   29 1   
    24   21   22 2   
    25   21   41 1   
    26   23   24 1   
    27   23   30 1   
    28   23   31 1   
    29   24   25 1   
    30   24   32 1   
    31   24   33 1   
    32   25   26 1   
    33   25   34 1   
    34   25   35 1   
    35   26   27 1   
    36   26   36 1   
    37   26   37 1   
    38   27   38 1   
    39   27   39 1   
    40   27   40 1   
    41   41   42 1   
    42   41   49 1   
    43   42   43 1   
    44   42   45 1   
    45   42   50 1   
    46   43   44 2   
    47   43   53 1   
    48   45   46 1   
    49   45   51 1   
    50   45   52 1   
    51   46   47 1   
    52   46   48 1   
    53   53   54 1   
    54   53   57 1   
    55   54   55 1   
    56   54   58 1   
    57   54   59 1   
    58   55   56 2   
    59   55   60 1   
    60   60   61 1   
    61   60   68 1   
    62   61   62 1   
    63   61   64 1   
    64   61   69 1   
    65   62   63 2   
    66   62   74 1   
    67   64   65 1   
    68   64   70 1   
    69   64   71 1   
    70   65   66 1   
    71   65   67 2   
    72   66   72 1   
    73   66   73 1   
    74   74   75 1   
    75   74   78 1   
    76   75   76 1   
    77   75   79 1   
    78   75   80 1   
    79   76   77 2   
    80   76   81 1   
    81   81   82 1   
    82   81   93 1   
    83   82   83 1   
    84   82   85 1   
    85   82   94 1   
    86   83   84 2   
    87   83  102 1   
    88   85   86 1   
    89   85   95 1   
    90   85   96 1   
    91   86   87 ar  
    92   86   88 ar  
    93   87   89 ar  
    94   87   97 1   
    95   88   90 ar  
    96   88   98 1   
    97   89   91 ar  
    98   89   99 1   
    99   90   91 ar  
   100   90  100 1   
   101   91   92 1   
   102   92  101 1   
   103  102  103 1   
   104  102  110 1   
   105  103  104 1   
   106  103  106 1   
   107  103  111 1   
   108  104  105 2   
   109  104  121 1   
   110  106  107 1   
   111  106  108 1   
   112  106  112 1   
   113  107  109 1   
   114  107  113 1   
   115  107  114 1   
   116  108  115 1   
   117  108  116 1   
   118  108  117 1   
   119  109  118 1   
   120  109  119 1   
   121  109  120 1   
   122  121  122 1   
   123  121  127 1   
   124  122  123 1   
   125  122  125 1   
   126  122  128 1   
   127  123  124 2   
   128  123  132 1   
   129  125  126 1   
   130  125  129 1   
   131  125  130 1   
   132  126  131 1   
   133  132  133 1   
   134  132  137 1   
   135  133  134 1   
   136  133  136 1   
   137  133  138 1   
   138  134  135 2   
   139  134  142 1   
   140  136  139 1   
   141  136  140 1   
   142  136  141 1   
   143  142  143 1   
   144  142  147 1   
   145  143  144 1   
   146  143  146 1   
   147  143  148 1   
   148  144  145 2   
   149  144  152 1   
   150  146  149 1   
   151  146  150 1   
   152  146  151 1   
   153  152  153 1   
   154  152  161 1   
   155  153  154 1   
   156  153  156 1   
   157  153  162 1   
   158  154  155 2   
   159  154  167 1   
   160  156  157 1   
   161  156  163 1   
   162  156  164 1   
   163  157  158 1   
   164  157  165 1   
   165  157  166 1   
   166  158  159 1   
   167  158  160 1   
   168  167  168 1   
   169  167  172 1   
   170  168  169 1   
   171  168  170 1   
   172  168  171 1   
   173  174  175 1   
   174  174  176 1   
   175  177  178 1   
   176  177  179 1   
@<TRIPOS>SUBSTRUCTURE
     1 MOL         1 TEMP              0 ****  ****    0 ROOT
