@<TRIPOS>MOLECULE
MOL
  189   185     1     0     0
SMALL
resp


@<TRIPOS>ATOM
      1 C1         -0.3120    3.5160    5.2290 c3        1 MOL     -0.302633
      2 C2         -0.6590    2.9120    3.8040 c         1 MOL      0.756802
      3 O1         -0.0020    3.2770    2.8490 o         1 MOL     -0.661210
      4 H1          0.6620    4.0020    5.1890 hc        1 MOL      0.074999
      5 H2         -1.0710    4.2460    5.5080 hc        1 MOL      0.074999
      6 H3         -0.2880    2.7150    5.9680 hc        1 MOL      0.074999
      7 N1         -1.7460    2.1950    3.5630 n         1 MOL     -0.535131
      8 C3         -2.2710    1.7590    2.2100 c3        1 MOL      0.321427
      9 C4         -2.7790    2.9900    1.4140 c         1 MOL      0.224951
     10 O2         -3.8540    3.6110    1.8020 o         1 MOL     -0.509263
     11 C5         -3.4180    0.8020    2.4660 c3        1 MOL     -0.393682
     12 C6         -4.0820    0.2920    1.2280 c         1 MOL      0.847987
     13 O3         -3.4060    0.3440    0.1640 o         1 MOL     -0.691636
     14 O4         -5.2680   -0.0460    1.2990 o         1 MOL     -0.691636
     15 H4         -2.4350    2.0940    4.2910 hn        1 MOL      0.286140
     16 H5         -1.4930    1.2650    1.6300 h1        1 MOL      0.002328
     17 H6         -4.1400    1.3210    3.0950 hc        1 MOL      0.083756
     18 H7         -2.9960    0.0040    3.0840 hc        1 MOL      0.083756
     19 N2         -1.9480    3.4550    0.4000 n         1 MOL     -0.033012
     20 C7         -2.2400    4.7410   -0.3260 c3        1 MOL     -0.216868
     21 C8         -3.1900    4.7640   -1.4420 c         1 MOL      0.423337
     22 O5         -3.7800    5.7860   -1.7560 o         1 MOL     -0.523619
     23 C9         -0.8090    5.1340   -0.8010 c3        1 MOL      0.182306
     24 C10        -0.0510    5.9970    0.1840 c3        1 MOL     -0.116435
     25 C11        -0.7460    7.3680    0.5100 c3        1 MOL     -0.130749
     26 C12        -0.8370    7.7920    1.9310 c3        1 MOL     -0.015046
     27 N3          0.4900    7.5930    2.5650 n4        1 MOL     -0.189286
     28 H8         -1.2110    2.8600    0.0670 hn        1 MOL      0.172733
     29 H9         -2.4980    5.4230    0.4850 h1        1 MOL      0.143224
     30 H10        -0.8480    5.7940   -1.6740 hc        1 MOL     -0.001606
     31 H11        -0.2030    4.2810   -1.0880 hc        1 MOL     -0.001606
     32 H12         1.0050    6.1000   -0.0880 hc        1 MOL      0.051930
     33 H13        -0.0170    5.4090    1.1010 hc        1 MOL      0.051930
     34 H14        -1.7670    7.3250    0.1380 hc        1 MOL      0.066703
     35 H15        -0.2550    8.2010   -0.0080 hc        1 MOL      0.066703
     36 H16        -1.5730    7.2250    2.5000 hx        1 MOL      0.096611
     37 H17        -0.9550    8.8780    1.9500 hx        1 MOL      0.096611
     38 H18         1.1780    8.0970    2.0210 hn        1 MOL      0.276416
     39 H19         0.5060    7.9230    3.5140 hn        1 MOL      0.276416
     40 H20         0.7990    6.6450    2.7030 hn        1 MOL      0.276416
     41 N4         -3.4620    3.5600   -2.0010 n         1 MOL     -0.128075
     42 C13        -4.5480    3.4220   -2.9130 c3        1 MOL     -0.166893
     43 C14        -5.8150    2.6820   -2.4860 c         1 MOL      0.542040
     44 O6         -6.7330    2.5740   -3.3210 o         1 MOL     -0.540508
     45 C15        -3.9850    2.6440   -4.2000 c3        1 MOL     -0.241303
     46 C16        -3.0340    1.5980   -3.9920 c         1 MOL      0.693157
     47 O7         -2.8360    1.0900   -2.8870 o         1 MOL     -0.646919
     48 O8         -2.2860    1.3430   -4.9450 o         1 MOL     -0.646919
     49 H21        -2.9090    2.7440   -1.7530 hn        1 MOL      0.200096
     50 H22        -4.9120    4.3900   -3.2540 h1        1 MOL      0.122744
     51 H23        -3.4580    3.2950   -4.9000 hc        1 MOL      0.091263
     52 H24        -4.7720    2.2040   -4.8280 hc        1 MOL      0.091263
     53 N5         -5.8380    2.1940   -1.2360 n         1 MOL     -0.319655
     54 C17        -7.1290    1.6220   -0.7480 c3        1 MOL     -0.247537
     55 C18        -7.4710    0.1760   -1.1620 c         1 MOL      0.562041
     56 O9         -8.6140   -0.2590   -1.0010 o         1 MOL     -0.567357
     57 H25        -5.1060    2.2690   -0.5550 hn        1 MOL      0.293767
     58 H26        -7.9780    2.1760   -1.1350 h1        1 MOL      0.130755
     59 H27        -7.2780    1.6160    0.3330 h1        1 MOL      0.130755
     60 N6         -6.4830   -0.6110   -1.6700 n         1 MOL     -0.233242
     61 C19        -6.6780   -2.0490   -1.9020 c3        1 MOL     -0.091738
     62 C20        -6.8530   -3.0160   -0.6710 c         1 MOL      0.467244
     63 O10        -7.3560   -4.1750   -0.8130 o         1 MOL     -0.570643
     64 C21        -5.6760   -2.5820   -2.9410 c3        1 MOL     -0.176929
     65 C22        -4.2290   -2.3780   -2.4450 c         1 MOL      0.756684
     66 O11        -3.9880   -2.6090   -1.2330 o         1 MOL     -0.740394
     67 O12        -3.2470   -2.2300   -3.1900 o         1 MOL     -0.740394
     68 H28        -5.5420   -0.2390   -1.6480 hn        1 MOL      0.139102
     69 H29        -7.6500   -2.0880   -2.4040 h1        1 MOL      0.118303
     70 H30        -5.7890   -2.0720   -3.8950 hc        1 MOL      0.072816
     71 H31        -5.8500   -3.6410   -3.1520 hc        1 MOL      0.072816
     72 N7         -6.5410   -2.5920    0.5520 n         1 MOL     -0.258377
     73 C23        -6.4980   -3.4960    1.7070 c3        1 MOL      0.003415
     74 C24        -5.1960   -4.1980    2.0040 c         1 MOL      0.447402
     75 O13        -5.2230   -5.0370    2.8730 o         1 MOL     -0.564077
     76 H32        -6.1560   -1.6640    0.6550 hn        1 MOL      0.235933
     77 H33        -7.3600   -4.1590    1.7180 h1        1 MOL      0.074050
     78 H34        -6.8890   -2.9940    2.5900 h1        1 MOL      0.074050
     79 N8         -4.0360   -3.8360    1.4280 n         1 MOL     -0.223024
     80 C25        -2.7630   -4.4650    1.6590 c3        1 MOL     -0.091471
     81 C26        -1.6570   -3.3530    1.5430 c         1 MOL      0.588600
     82 O14        -1.8330   -2.4410    0.7540 o         1 MOL     -0.676718
     83 C27        -2.3910   -5.5070    0.5340 c3        1 MOL      0.542528
     84 C28        -2.9660   -6.9170    0.7140 c3        1 MOL     -0.542659
     85 O15        -2.6560   -5.0760   -0.7960 oh        1 MOL     -0.686787
     86 H35        -4.1140   -3.0790    0.7610 hn        1 MOL      0.174541
     87 H36        -2.5650   -4.9710    2.6060 h1        1 MOL      0.076323
     88 H37        -1.3070   -5.5730    0.6250 h1        1 MOL     -0.073402
     89 H38        -3.1170   -4.2300   -0.7350 ho        1 MOL      0.470744
     90 H39        -2.5360   -7.4180    1.5890 hc        1 MOL      0.139584
     91 H40        -4.0420   -6.9190    0.8990 hc        1 MOL      0.139584
     92 H41        -2.8030   -7.4720   -0.2080 hc        1 MOL      0.139584
     93 N9         -0.6440   -3.5820    2.2820 n         1 MOL     -0.561080
     94 C29         0.4600   -2.6150    2.2670 c3        1 MOL      0.152604
     95 C30         1.6870   -3.2790    1.7490 c         1 MOL      0.483761
     96 O16         2.1070   -4.3220    2.2330 o         1 MOL     -0.571462
     97 C31         0.5260   -2.0270    3.6470 c3        1 MOL      0.242266
     98 C32        -0.6910   -1.2960    4.1250 c3        1 MOL      0.068937
     99 C33         1.6520   -0.9890    3.7540 c3        1 MOL     -0.556056
    100 C34        -0.7240   -1.3300    5.7230 c3        1 MOL     -0.225126
    101 H42        -0.4620   -4.4040    2.8470 hn        1 MOL      0.310733
    102 H43         0.2690   -1.7760    1.6010 h1        1 MOL      0.016307
    103 H44         0.8090   -2.8880    4.2560 hc        1 MOL     -0.005379
    104 H45        -1.6240   -1.8100    3.8880 hc        1 MOL      0.005244
    105 H46        -0.7280   -0.2640    3.7560 hc        1 MOL      0.005244
    106 H47         1.7760   -0.5860    4.7620 hc        1 MOL      0.106696
    107 H48         2.6030   -1.5080    3.6140 hc        1 MOL      0.106696
    108 H49         1.5930   -0.1060    3.1200 hc        1 MOL      0.106696
    109 H50        -1.4690   -0.6330    6.1090 hc        1 MOL      0.050363
    110 H51        -0.8400   -2.3690    6.0260 hc        1 MOL      0.050363
    111 H52         0.1750   -0.9350    6.1920 hc        1 MOL      0.050363
    112 N10         2.4050   -2.5110    0.9660 n         1 MOL     -0.314889
    113 C35         3.6770   -2.8320    0.2790 c3        1 MOL      0.206390
    114 C36         4.8830   -2.1880    0.9790 c         1 MOL      0.236690
    115 O17         4.7520   -1.2180    1.7550 o         1 MOL     -0.341641
    116 C37         3.7830   -2.3670   -1.2320 c3        1 MOL      0.055226
    117 C38         2.7350   -2.8690   -2.2460 c3        1 MOL     -0.291661
    118 O18         3.9360   -0.9730   -1.3390 oh        1 MOL     -0.345507
    119 H53         2.0290   -1.6250    0.6490 hn        1 MOL      0.427363
    120 H54         3.8830   -3.9010    0.2460 h1        1 MOL      0.034197
    121 H55         4.7430   -2.8050   -1.5130 h1        1 MOL     -0.002180
    122 H56         3.5980   -0.8040   -2.2240 ho        1 MOL      0.377560
    123 H57         1.8050   -2.8130   -1.6810 hc        1 MOL      0.077589
    124 H58         2.7340   -2.2250   -3.1290 hc        1 MOL      0.077589
    125 H59         3.0100   -3.8630   -2.5940 hc        1 MOL      0.077589
    126 N11         6.1020   -2.5990    0.6380 n         1 MOL     -0.275227
    127 C39         7.3790   -1.9680    0.9630 c3        1 MOL     -0.055345
    128 C40         7.4420   -0.5430    0.4380 c         1 MOL      0.323144
    129 O19         8.1370    0.3030    1.0260 o         1 MOL     -0.522554
    130 C41         8.5480   -2.6990    0.2750 c3        1 MOL      0.179597
    131 C42         8.7890   -4.1150    0.7610 c3        1 MOL     -0.410762
    132 O20         8.2560   -2.7980   -1.1360 oh        1 MOL     -0.595080
    133 H60         6.0940   -3.3860    0.0190 hn        1 MOL      0.265227
    134 H61         7.5360   -1.9890    2.0400 h1        1 MOL      0.160862
    135 H62         9.4570   -2.1110    0.3530 h1        1 MOL      0.076716
    136 H63         9.1060   -2.8920   -1.5760 ho        1 MOL      0.399430
    137 H64         7.9080   -4.6870    0.4700 hc        1 MOL      0.126876
    138 H65         9.5870   -4.6380    0.2480 hc        1 MOL      0.126876
    139 H66         8.9220   -4.1100    1.8430 hc        1 MOL      0.126876
    140 N12         6.6630   -0.1050   -0.5810 n         1 MOL      0.009090
    141 C43         6.6460    1.2030   -1.3030 c3        1 MOL     -0.131488
    142 C44         5.6840    2.2270   -0.7460 c         1 MOL      0.319354
    143 O21         5.9220    3.4370   -0.6360 o         1 MOL     -0.497369
    144 C45         6.5620    1.1150   -2.8510 c3        1 MOL     -0.065843
    145 C46         7.4700   -0.0150   -3.4720 c3        1 MOL     -0.079995
    146 C47         8.9560    0.4380   -3.4200 c3        1 MOL     -0.127207
    147 C48         9.8850   -0.5040   -4.2740 c3        1 MOL      0.209759
    148 N13         9.4390   -0.7850   -5.5970 n4        1 MOL     -0.288287
    149 H67         5.9410   -0.7670   -0.8150 hn        1 MOL      0.117196
    150 H68         7.6220    1.6590   -1.1740 h1        1 MOL      0.125796
    151 H69         6.8110    2.0650   -3.3230 hc        1 MOL      0.053738
    152 H70         5.5540    0.8170   -3.1560 hc        1 MOL      0.053738
    153 H71         7.2330   -0.0220   -4.5380 hc        1 MOL      0.007539
    154 H72         7.2360   -1.0060   -3.0750 hc        1 MOL      0.007539
    155 H73         9.3180    0.3980   -2.3940 hc        1 MOL      0.084265
    156 H74         8.9820    1.4960   -3.6870 hc        1 MOL      0.084265
    157 H75         9.9580   -1.4860   -3.7980 hx        1 MOL      0.007110
    158 H76        10.9460   -0.2340   -4.2890 hx        1 MOL      0.007110
    159 H77         9.1440   -1.7530   -5.6470 hn        1 MOL      0.260768
    160 H78         8.7480   -0.1190   -5.9140 hn        1 MOL      0.260768
    161 H79        10.2100   -0.7510   -6.2500 hn        1 MOL      0.260768
    162 N14         4.6730    1.6530   -0.1010 n         1 MOL      0.182732
    163 C49         3.7610    2.4060    0.6930 c3        1 MOL     -0.297178
    164 C50         4.3080    2.6590    2.1170 c         1 MOL      0.534093
    165 O22         4.2020    3.7900    2.6410 o         1 MOL     -0.578565
    166 C51         2.4530    1.6290    0.7940 c3        1 MOL      0.099954
    167 C52         1.7420    1.7950   -0.6010 c3        1 MOL     -0.154320
    168 C53         0.5420    0.8220   -0.5700 c         1 MOL      0.941205
    169 O23        -0.5590    1.3010   -0.8580 o         1 MOL     -0.818793
    170 O24         0.6600   -0.3720   -0.3480 o         1 MOL     -0.818793
    171 H80         4.4160    0.6920   -0.2280 hn        1 MOL     -0.073656
    172 H81         3.5830    3.3940    0.2680 h1        1 MOL      0.126031
    173 H82         1.7660    2.0320    1.5390 hc        1 MOL      0.004170
    174 H83         2.5630    0.5940    1.1200 hc        1 MOL      0.004170
    175 H84         2.4240    1.4490   -1.3810 hc        1 MOL     -0.012760
    176 H85         1.4250    2.8090   -0.8570 hc        1 MOL     -0.012760
    177 N15         4.9290    1.6730    2.7660 n         1 MOL     -0.200643
    178 C54         5.7730    1.8340    4.0110 c3        1 MOL     -0.215277
    179 H86         6.7960    2.0790    3.7260 h1        1 MOL      0.102183
    180 H87         5.3650    2.6370    4.6250 h1        1 MOL      0.102183
    181 H88         5.7670    0.9030    4.5780 h1        1 MOL      0.102183
    182 H89         4.9770    0.7500    2.3650 hn        1 MOL      0.158566
    183 Ca1        -1.7770   -0.9040   -1.4120 Ca        1 MOL      1.724693
    184 O25        -0.8670   -3.3740   -1.8750 oh        1 MOL     -0.842703
    185 H90        -1.4560   -4.0960   -1.6640 ho        1 MOL      0.413257
    186 H91        -0.2780   -3.7310   -2.5330 ho        1 MOL      0.413257
    187 O26         0.1560   -1.0230   -3.2970 oh        1 MOL     -0.842703
    188 H92        -0.1180   -1.5480   -4.0490 ho        1 MOL      0.413257
    189 H93         0.9760   -0.6260   -3.5700 ho        1 MOL      0.413257
@<TRIPOS>BOND
     1    1    2 1   
     2    1    4 1   
     3    1    5 1   
     4    1    6 1   
     5    2    3 2   
     6    2    7 1   
     7    7    8 1   
     8    7   15 1   
     9    8    9 1   
    10    8   11 1   
    11    8   16 1   
    12    9   10 2   
    13    9   19 1   
    14   11   12 1   
    15   11   17 1   
    16   11   18 1   
    17   12   13 1   
    18   12   14 1   
    19   19   20 1   
    20   19   28 1   
    21   20   21 1   
    22   20   23 1   
    23   20   29 1   
    24   21   22 2   
    25   21   41 1   
    26   23   24 1   
    27   23   30 1   
    28   23   31 1   
    29   24   25 1   
    30   24   32 1   
    31   24   33 1   
    32   25   26 1   
    33   25   34 1   
    34   25   35 1   
    35   26   27 1   
    36   26   36 1   
    37   26   37 1   
    38   27   38 1   
    39   27   39 1   
    40   27   40 1   
    41   41   42 1   
    42   41   49 1   
    43   42   43 1   
    44   42   45 1   
    45   42   50 1   
    46   43   44 2   
    47   43   53 1   
    48   45   46 1   
    49   45   51 1   
    50   45   52 1   
    51   46   47 1   
    52   46   48 1   
    53   53   54 1   
    54   53   57 1   
    55   54   55 1   
    56   54   58 1   
    57   54   59 1   
    58   55   56 2   
    59   55   60 1   
    60   60   61 1   
    61   60   68 1   
    62   61   62 1   
    63   61   64 1   
    64   61   69 1   
    65   62   63 2   
    66   62   72 1   
    67   64   65 1   
    68   64   70 1   
    69   64   71 1   
    70   65   66 1   
    71   65   67 1   
    72   72   73 1   
    73   72   76 1   
    74   73   74 1   
    75   73   77 1   
    76   73   78 1   
    77   74   75 2   
    78   74   79 1   
    79   79   80 1   
    80   79   86 1   
    81   80   81 1   
    82   80   83 1   
    83   80   87 1   
    84   81   82 2   
    85   81   93 1   
    86   83   84 1   
    87   83   85 1   
    88   83   88 1   
    89   84   90 1   
    90   84   91 1   
    91   84   92 1   
    92   85   89 1   
    93   93   94 1   
    94   93  101 1   
    95   94   95 1   
    96   94   97 1   
    97   94  102 1   
    98   95   96 2   
    99   95  112 1   
   100   97   98 1   
   101   97   99 1   
   102   97  103 1   
   103   98  100 1   
   104   98  104 1   
   105   98  105 1   
   106   99  106 1   
   107   99  107 1   
   108   99  108 1   
   109  100  109 1   
   110  100  110 1   
   111  100  111 1   
   112  112  113 1   
   113  112  119 1   
   114  113  114 1   
   115  113  116 1   
   116  113  120 1   
   117  114  115 2   
   118  114  126 1   
   119  116  117 1   
   120  116  118 1   
   121  116  121 1   
   122  117  123 1   
   123  117  124 1   
   124  117  125 1   
   125  118  122 1   
   126  126  127 1   
   127  126  133 1   
   128  127  128 1   
   129  127  130 1   
   130  127  134 1   
   131  128  129 2   
   132  128  140 1   
   133  130  131 1   
   134  130  132 1   
   135  130  135 1   
   136  131  137 1   
   137  131  138 1   
   138  131  139 1   
   139  132  136 1   
   140  140  141 1   
   141  140  149 1   
   142  141  142 1   
   143  141  144 1   
   144  141  150 1   
   145  142  143 2   
   146  142  162 1   
   147  144  145 1   
   148  144  151 1   
   149  144  152 1   
   150  145  146 1   
   151  145  153 1   
   152  145  154 1   
   153  146  147 1   
   154  146  155 1   
   155  146  156 1   
   156  147  148 1   
   157  147  157 1   
   158  147  158 1   
   159  148  159 1   
   160  148  160 1   
   161  148  161 1   
   162  162  163 1   
   163  162  171 1   
   164  163  164 1   
   165  163  166 1   
   166  163  172 1   
   167  164  165 2   
   168  164  177 1   
   169  166  167 1   
   170  166  173 1   
   171  166  174 1   
   172  167  168 1   
   173  167  175 1   
   174  167  176 1   
   175  168  169 1   
   176  168  170 1   
   177  177  178 1   
   178  177  182 1   
   179  178  179 1   
   180  178  180 1   
   181  178  181 1   
   182  184  185 1   
   183  184  186 1   
   184  187  188 1   
   185  187  189 1   
@<TRIPOS>SUBSTRUCTURE
     1 MOL         1 TEMP              0 ****  ****    0 ROOT
