@<TRIPOS>MOLECULE
MOL
  175   173     1     0     0
SMALL
resp


@<TRIPOS>ATOM
      1 C1          0.7010    3.9450    5.3650 c3        1 MOL     -0.359088
      2 C2          0.0790    3.8850    3.9930 c         1 MOL      0.828703
      3 O1          0.7700    4.1010    3.0210 o         1 MOL     -0.578827
      4 H1          0.0520    4.5100    6.0330 hc        1 MOL      0.079896
      5 H2          0.8280    2.9330    5.7520 hc        1 MOL      0.079896
      6 H3          1.6730    4.4340    5.3030 hc        1 MOL      0.079896
      7 N1         -1.2300    3.6370    3.9180 n         1 MOL     -0.859120
      8 C3         -1.9220    3.3300    2.6700 c3        1 MOL      0.387519
      9 C4         -2.0100    4.5460    1.8150 c         1 MOL      0.621546
     10 O2         -2.1880    5.6740    2.3040 o         1 MOL     -0.573235
     11 C5         -3.3150    2.7350    3.0800 c3        1 MOL     -0.363084
     12 C6         -4.0760    2.3370    1.8580 c         1 MOL      0.718141
     13 O3         -5.2870    2.4840    1.8730 o         1 MOL     -0.647682
     14 O4         -3.4770    1.8760    0.8710 o         1 MOL     -0.647682
     15 H4         -1.6850    3.6870    4.8170 hn        1 MOL      0.364838
     16 H5         -1.3110    2.6630    2.0590 h1        1 MOL      0.022448
     17 H6         -3.8670    3.5430    3.5560 hc        1 MOL      0.072606
     18 H7         -3.2340    1.9060    3.7850 hc        1 MOL      0.072606
     19 N2         -2.0980    4.3380    0.4450 n         1 MOL     -0.685571
     20 C7         -2.3240    5.4040   -0.5750 c3        1 MOL      0.381474
     21 C8         -3.2820    4.9550   -1.7270 c         1 MOL      0.409905
     22 O5         -3.2670    5.5860   -2.7800 o         1 MOL     -0.551575
     23 C9         -0.9340    5.9440   -1.0080 c3        1 MOL     -0.211370
     24 H8         -1.8000    3.4400    0.0900 hn        1 MOL      0.354583
     25 H9         -2.8630    6.2030   -0.0800 h1        1 MOL     -0.010059
     26 H10        -1.1390    6.7730   -1.6900 hc        1 MOL      0.044810
     27 H11        -0.4590    6.4370   -0.1620 hc        1 MOL      0.044810
     28 H12        -0.3500    5.1460   -1.4660 hc        1 MOL      0.044810
     29 N3         -3.9440    3.7900   -1.6270 n         1 MOL     -0.434944
     30 C10        -4.8370    3.3140   -2.7710 c3        1 MOL      0.282536
     31 C11        -6.1240    2.7440   -2.2300 c         1 MOL      0.366997
     32 O6         -7.1580    2.8230   -2.8860 o         1 MOL     -0.564868
     33 C12        -4.0700    2.3700   -3.6860 c3        1 MOL     -0.283636
     34 C13        -3.3220    1.3570   -2.8190 c         1 MOL      0.755007
     35 O7         -2.0800    1.2360   -2.9250 o         1 MOL     -0.695099
     36 O8         -3.8820    0.7040   -2.0020 o         1 MOL     -0.695099
     37 H13        -3.7190    3.1950   -0.8400 hn        1 MOL      0.309457
     38 H14        -5.1540    4.2260   -3.2810 h1        1 MOL      0.032129
     39 H15        -3.3400    2.8360   -4.3450 hc        1 MOL      0.058509
     40 H16        -4.8430    1.9010   -4.2970 hc        1 MOL      0.058509
     41 N4         -6.1260    2.2800   -0.9640 n         1 MOL     -0.135042
     42 C14        -7.2070    1.5290   -0.4030 c3        1 MOL     -0.085900
     43 C15        -7.2880    0.0110   -0.8050 c         1 MOL      0.520556
     44 O9         -8.4100   -0.4340   -0.6300 o         1 MOL     -0.623018
     45 H17        -5.2270    2.3330   -0.5000 hn        1 MOL     -0.011799
     46 H18        -8.1940    1.9120   -0.6240 h1        1 MOL      0.087994
     47 H19        -7.1650    1.6170    0.6840 h1        1 MOL      0.087994
     48 N5         -6.3230   -0.6570   -1.4470 n         1 MOL     -0.236038
     49 C16        -6.3570   -2.0070   -1.9910 c3        1 MOL     -0.064262
     50 C17        -6.3250   -3.0520   -0.8540 c         1 MOL      0.398463
     51 O10        -6.1780   -4.2340   -1.1580 o         1 MOL     -0.523943
     52 C18        -5.2970   -2.0890   -3.1040 c3        1 MOL     -0.060606
     53 C19        -3.8120   -2.0660   -2.5990 c         1 MOL      0.454538
     54 N6         -2.8620   -1.9660   -3.5480 n         1 MOL     -0.678552
     55 O11        -3.5000   -2.1520   -1.4340 o         1 MOL     -0.240844
     56 H20        -5.5390   -0.0850   -1.7030 hn        1 MOL      0.160284
     57 H21        -7.3320   -2.1340   -2.4640 h1        1 MOL      0.107973
     58 H22        -5.3890   -1.3110   -3.8710 hc        1 MOL      0.043747
     59 H23        -5.4750   -2.9660   -3.7370 hc        1 MOL      0.043747
     60 H24        -3.0530   -1.7730   -4.5290 hn        1 MOL      0.347571
     61 H25        -1.9200   -1.9980   -3.1950 hn        1 MOL      0.347571
     62 N7         -6.3660   -2.7000    0.4010 n         1 MOL     -0.122595
     63 C20        -6.2910   -3.5900    1.5270 c3        1 MOL     -0.368116
     64 C21        -4.9180   -4.2970    1.6760 c         1 MOL      0.540980
     65 O12        -4.9160   -5.2600    2.4740 o         1 MOL     -0.565753
     66 H26        -6.4710   -1.7260    0.6450 hn        1 MOL      0.216747
     67 H27        -6.9930   -4.4040    1.3440 h1        1 MOL      0.153350
     68 H28        -6.5690   -2.9720    2.3850 h1        1 MOL      0.153350
     69 N8         -3.8090   -3.9810    0.9440 n         1 MOL     -0.116111
     70 C22        -2.4470   -4.6110    1.1980 c3        1 MOL     -0.338288
     71 C23        -1.3910   -3.5480    1.3330 c         1 MOL      0.741349
     72 O13        -1.4780   -2.5150    0.6690 o         1 MOL     -0.633393
     73 C24        -1.9810   -5.5700    0.0810 c3        1 MOL      0.538115
     74 C25        -2.8190   -6.8440    0.0470 c3        1 MOL     -0.622329
     75 O14        -2.2650   -4.9720   -1.1620 oh        1 MOL     -0.567388
     76 H29        -3.8490   -3.3310    0.1820 hn        1 MOL      0.072946
     77 H30        -2.4050   -5.1460    2.1470 h1        1 MOL      0.107496
     78 H31        -0.9080   -5.6820    0.1860 h1        1 MOL     -0.041373
     79 H32        -2.1350   -4.0290   -1.0760 ho        1 MOL      0.291669
     80 H33        -2.4300   -7.3870   -0.8130 hc        1 MOL      0.165363
     81 H34        -2.7450   -7.3920    0.9820 hc        1 MOL      0.165363
     82 H35        -3.8350   -6.4730   -0.1180 hc        1 MOL      0.165363
     83 N9         -0.4110   -3.7260    2.1680 n         1 MOL     -0.546225
     84 C26         0.7400   -2.8130    2.1540 c3        1 MOL     -0.020471
     85 C27         1.5490   -3.1310    0.8610 c         1 MOL      0.689946
     86 O15         2.0420   -4.2450    0.6970 o         1 MOL     -0.602530
     87 C28         1.5510   -2.9370    3.4370 c3        1 MOL      0.013408
     88 C29         0.7310   -2.0950    4.4720 c3        1 MOL      0.153675
     89 C30         3.0070   -2.4910    3.3150 c3        1 MOL     -0.248649
     90 C31         1.1310   -2.4200    5.9640 c3        1 MOL     -0.230893
     91 H36        -0.3400   -4.5410    2.7530 hn        1 MOL      0.295093
     92 H37         0.3310   -1.8010    2.0620 h1        1 MOL     -0.005463
     93 H38         1.5820   -3.9970    3.6800 hc        1 MOL      0.043912
     94 H39        -0.3450   -2.2040    4.3870 hc        1 MOL     -0.005465
     95 H40         0.8410   -1.0100    4.3480 hc        1 MOL     -0.005465
     96 H41         3.0370   -1.4560    2.9680 hc        1 MOL      0.064367
     97 H42         3.5900   -2.4640    4.2330 hc        1 MOL      0.064367
     98 H43         3.5150   -3.0400    2.5340 hc        1 MOL      0.064367
     99 H44         0.9980   -3.4940    6.1050 hc        1 MOL      0.043728
    100 H45         2.1620   -2.1110    6.1520 hc        1 MOL      0.043728
    101 H46         0.4700   -1.8570    6.6350 hc        1 MOL      0.043728
    102 N10         1.7290   -2.1040   -0.0160 n         1 MOL     -0.399174
    103 C32         2.6040   -2.1480   -1.2070 c3        1 MOL      0.002437
    104 C33         4.0160   -1.5400   -0.8440 c         1 MOL      0.494857
    105 O16         4.1880   -0.7960    0.1630 o         1 MOL     -0.370887
    106 C34         2.0440   -1.2050   -2.2670 c3        1 MOL     -0.357575
    107 C35         0.5390   -1.4950   -2.6590 c         1 MOL      0.739170
    108 O17         0.2430   -2.0340   -3.7630 o         1 MOL     -0.680413
    109 O18        -0.3950   -1.0460   -1.9120 o         1 MOL     -0.680413
    110 H47         1.2670   -1.2100    0.1200 hn        1 MOL      0.317178
    111 H48         2.6880   -3.1860   -1.5400 h1        1 MOL      0.099254
    112 H49         2.5750   -1.2210   -3.2140 hc        1 MOL      0.107949
    113 H50         2.0130   -0.1660   -1.9710 hc        1 MOL      0.107949
    114 N11         5.0450   -1.8400   -1.6460 n         1 MOL     -0.654578
    115 C36         6.4490   -1.4710   -1.3110 c3        1 MOL      0.298203
    116 C37         6.5930    0.0530   -1.0230 c         1 MOL      0.355039
    117 O19         7.1230    0.3500    0.0350 o         1 MOL     -0.461361
    118 C38         7.5030   -2.1020   -2.3080 c3        1 MOL     -0.118202
    119 C39         8.9840   -1.9080   -1.9960 ca        1 MOL     -0.001798
    120 C40         9.7720   -1.0550   -2.7190 ca        1 MOL     -0.113722
    121 C41         9.5020   -2.5530   -0.8410 ca        1 MOL     -0.113722
    122 C42        11.0680   -0.7250   -2.3090 ca        1 MOL     -0.153897
    123 C43        10.7730   -2.1930   -0.3300 ca        1 MOL     -0.153897
    124 C44        11.4570   -1.2030   -1.0640 ca        1 MOL     -0.046344
    125 H51         4.8920   -2.1540   -2.5890 hn        1 MOL      0.324606
    126 H52         6.6380   -1.9980   -0.3770 h1        1 MOL      0.065327
    127 H53         7.2660   -1.6990   -3.3030 hc        1 MOL      0.048352
    128 H54         7.2750   -3.1490   -2.4440 hc        1 MOL      0.048352
    129 H55         9.3540   -0.7320   -3.6590 ha        1 MOL      0.108117
    130 H56         8.8780   -3.2470   -0.3010 ha        1 MOL      0.108117
    131 H57        11.7130   -0.2130   -3.0010 ha        1 MOL      0.126450
    132 H58        11.1400   -2.5690    0.6100 ha        1 MOL      0.126450
    133 H59        12.3960   -0.8800   -0.6190 ha        1 MOL      0.077116
    134 N12         6.1340    0.9580   -1.9330 n         1 MOL     -0.138829
    135 C45         6.0940    2.4030   -1.6650 c3        1 MOL      0.142887
    136 C46         5.4940    2.8380   -0.3170 c         1 MOL      0.113525
    137 O20         5.8900    3.8970    0.2040 o         1 MOL     -0.485351
    138 C47         5.4270    3.0810   -2.7850 c3        1 MOL      0.012174
    139 C48         5.8330    2.2020   -3.9460 c3        1 MOL      0.002841
    140 C49         5.8760    0.7800   -3.3630 c3        1 MOL      0.007622
    141 H60         7.1340    2.7190   -1.7260 h1        1 MOL      0.035245
    142 H61         4.3500    3.0980   -2.6520 hc        1 MOL      0.026405
    143 H62         5.8180    4.0920   -2.9630 hc        1 MOL      0.026405
    144 H63         5.1410    2.3060   -4.7740 hc        1 MOL      0.009353
    145 H64         6.8450    2.4990   -4.2260 hc        1 MOL      0.009353
    146 H65         4.9340    0.2750   -3.5590 h1        1 MOL      0.011463
    147 H66         6.6830    0.2540   -3.8750 h1        1 MOL      0.011463
    148 N13         4.5390    2.0750    0.2430 n         1 MOL      0.064032
    149 C50         3.9130    2.3210    1.5270 c3        1 MOL     -0.095226
    150 C51         4.7600    1.6800    2.6240 c         1 MOL      0.449638
    151 O21         4.7140    2.0590    3.7620 o         1 MOL     -0.575053
    152 C52         2.5670    1.6980    1.4940 c3        1 MOL      0.063031
    153 C53         1.7120    2.1670    0.3710 c3        1 MOL     -0.182489
    154 C54         0.3630    1.3960    0.3690 c         1 MOL      0.670508
    155 O22        -0.6090    1.9540   -0.1590 o         1 MOL     -0.671092
    156 O23         0.2480    0.2730    0.8130 o         1 MOL     -0.671092
    157 H67         4.1750    1.3150   -0.3170 hn        1 MOL      0.104593
    158 H68         3.9070    3.3750    1.7890 h1        1 MOL      0.110498
    159 H69         2.0130    1.9650    2.3860 hc        1 MOL     -0.001350
    160 H70         2.7000    0.6090    1.5030 hc        1 MOL     -0.001350
    161 H71         2.2000    1.9220   -0.5740 hc        1 MOL      0.059869
    162 H72         1.4900    3.2340    0.4750 hc        1 MOL      0.059869
    163 N14         5.5980    0.7060    2.3050 n         1 MOL     -0.006898
    164 C55         6.5490    0.0730    3.2990 c3        1 MOL     -0.251143
    165 H73         6.3060    0.4190    4.3050 h1        1 MOL      0.089728
    166 H74         6.4530   -1.0120    3.2550 h1        1 MOL      0.089728
    167 H75         7.5720    0.3580    3.0560 h1        1 MOL      0.089728
    168 H76         5.6090    0.2880    1.3890 hn        1 MOL      0.019847
    169 Ca1        -2.2340   -0.0940   -0.2840 Ca        1 MOL      1.552468
    170 O24        -1.6860   -0.1650    2.5720 oh        1 MOL     -0.874013
    171 H77        -1.6240    0.0880    3.4940 ho        1 MOL      0.425914
    172 H78        -0.7750   -0.1330    2.2560 ho        1 MOL      0.425914
    173 O25        -4.0130   -0.9180    1.4680 oh        1 MOL     -0.874013
    174 H79        -3.2870   -0.7640    2.0660 ho        1 MOL      0.425914
    175 H80        -4.7920   -0.7500    1.9990 ho        1 MOL      0.425914
@<TRIPOS>BOND
     1    1    2 1   
     2    1    4 1   
     3    1    5 1   
     4    1    6 1   
     5    2    3 2   
     6    2    7 1   
     7    7    8 1   
     8    7   15 1   
     9    8    9 1   
    10    8   11 1   
    11    8   16 1   
    12    9   10 2   
    13    9   19 1   
    14   11   12 1   
    15   11   17 1   
    16   11   18 1   
    17   12   13 1   
    18   12   14 1   
    19   19   20 1   
    20   19   24 1   
    21   20   21 1   
    22   20   23 1   
    23   20   25 1   
    24   21   22 2   
    25   21   29 1   
    26   23   26 1   
    27   23   27 1   
    28   23   28 1   
    29   29   30 1   
    30   29   37 1   
    31   30   31 1   
    32   30   33 1   
    33   30   38 1   
    34   31   32 2   
    35   31   41 1   
    36   33   34 1   
    37   33   39 1   
    38   33   40 1   
    39   34   35 1   
    40   34   36 1   
    41   41   42 1   
    42   41   45 1   
    43   42   43 1   
    44   42   46 1   
    45   42   47 1   
    46   43   44 2   
    47   43   48 1   
    48   48   49 1   
    49   48   56 1   
    50   49   50 1   
    51   49   52 1   
    52   49   57 1   
    53   50   51 2   
    54   50   62 1   
    55   52   53 1   
    56   52   58 1   
    57   52   59 1   
    58   53   54 1   
    59   53   55 2   
    60   54   60 1   
    61   54   61 1   
    62   62   63 1   
    63   62   66 1   
    64   63   64 1   
    65   63   67 1   
    66   63   68 1   
    67   64   65 2   
    68   64   69 1   
    69   69   70 1   
    70   69   76 1   
    71   70   71 1   
    72   70   73 1   
    73   70   77 1   
    74   71   72 2   
    75   71   83 1   
    76   73   74 1   
    77   73   75 1   
    78   73   78 1   
    79   74   80 1   
    80   74   81 1   
    81   74   82 1   
    82   75   79 1   
    83   83   84 1   
    84   83   91 1   
    85   84   85 1   
    86   84   87 1   
    87   84   92 1   
    88   85   86 2   
    89   85  102 1   
    90   87   88 1   
    91   87   89 1   
    92   87   93 1   
    93   88   90 1   
    94   88   94 1   
    95   88   95 1   
    96   89   96 1   
    97   89   97 1   
    98   89   98 1   
    99   90   99 1   
   100   90  100 1   
   101   90  101 1   
   102  102  103 1   
   103  102  110 1   
   104  103  104 1   
   105  103  106 1   
   106  103  111 1   
   107  104  105 2   
   108  104  114 1   
   109  106  107 1   
   110  106  112 1   
   111  106  113 1   
   112  107  108 1   
   113  107  109 1   
   114  114  115 1   
   115  114  125 1   
   116  115  116 1   
   117  115  118 1   
   118  115  126 1   
   119  116  117 2   
   120  116  134 1   
   121  118  119 1   
   122  118  127 1   
   123  118  128 1   
   124  119  120 ar  
   125  119  121 ar  
   126  120  122 ar  
   127  120  129 1   
   128  121  123 ar  
   129  121  130 1   
   130  122  124 ar  
   131  122  131 1   
   132  123  124 ar  
   133  123  132 1   
   134  124  133 1   
   135  134  135 1   
   136  134  140 1   
   137  135  136 1   
   138  135  138 1   
   139  135  141 1   
   140  136  137 2   
   141  136  148 1   
   142  138  139 1   
   143  138  142 1   
   144  138  143 1   
   145  139  140 1   
   146  139  144 1   
   147  139  145 1   
   148  140  146 1   
   149  140  147 1   
   150  148  149 1   
   151  148  157 1   
   152  149  150 1   
   153  149  152 1   
   154  149  158 1   
   155  150  151 2   
   156  150  163 1   
   157  152  153 1   
   158  152  159 1   
   159  152  160 1   
   160  153  154 1   
   161  153  161 1   
   162  153  162 1   
   163  154  155 1   
   164  154  156 1   
   165  163  164 1   
   166  163  168 1   
   167  164  165 1   
   168  164  166 1   
   169  164  167 1   
   170  170  171 1   
   171  170  172 1   
   172  173  174 1   
   173  173  175 1   
@<TRIPOS>SUBSTRUCTURE
     1 MOL         1 TEMP              0 ****  ****    0 ROOT
