@<TRIPOS>MOLECULE
MOL
  183   181     1     0     0
SMALL
resp


@<TRIPOS>ATOM
      1 C1         -0.5270    1.7000    6.5130 c3        1 MOL     -0.325029
      2 C2         -0.8170    1.7200    5.0190 c         1 MOL      0.768537
      3 O1         -0.0130    2.3440    4.3120 o         1 MOL     -0.584672
      4 H1         -1.4500    1.5060    7.0590 hc        1 MOL      0.075367
      5 H2          0.1980    0.9160    6.7330 hc        1 MOL      0.075367
      6 H3         -0.1220    2.6650    6.8180 hc        1 MOL      0.075367
      7 N1         -1.9280    1.2380    4.4830 n         1 MOL     -0.652817
      8 C3         -2.4940    1.3560    3.0830 c3        1 MOL      0.273052
      9 C4         -3.0290    2.7350    2.7680 c         1 MOL      0.632406
     10 O2         -3.6630    3.3880    3.6000 o         1 MOL     -0.604222
     11 C5         -3.5810    0.2160    2.9000 c3        1 MOL     -0.347206
     12 C6         -4.3660    0.1070    1.6170 c         1 MOL      0.778096
     13 O3         -5.4630   -0.4860    1.6710 o         1 MOL     -0.628295
     14 O4         -3.9750    0.6860    0.6000 o         1 MOL     -0.628295
     15 H4         -2.5790    0.7790    5.1010 hn        1 MOL      0.305680
     16 H5         -1.7650    1.1030    2.3100 h1        1 MOL     -0.005259
     17 H6         -4.2760    0.3950    3.7310 hc        1 MOL      0.062279
     18 H7         -3.1070   -0.7360    3.1500 hc        1 MOL      0.062279
     19 N2         -2.6320    3.2260    1.5780 n         1 MOL     -0.366514
     20 C7         -2.8230    4.6740    1.2380 c3        1 MOL     -0.072878
     21 C8         -3.8730    4.9160    0.1570 c         1 MOL      0.631220
     22 O5         -4.4040    6.0200   -0.0170 o         1 MOL     -0.594149
     23 C9         -1.4420    5.3270    0.9730 c3        1 MOL      0.188857
     24 C10        -0.4990    5.3780    2.2250 c3        1 MOL      0.180990
     25 C11        -1.4230    6.7330    0.4410 c3        1 MOL     -0.321831
     26 C12         0.9750    5.7560    1.8930 c3        1 MOL     -0.202975
     27 H8         -2.2210    2.5460    0.9560 hn        1 MOL      0.110587
     28 H9         -3.2260    5.2730    2.0540 h1        1 MOL      0.074890
     29 H10        -1.0650    4.8000    0.0940 hc        1 MOL      0.051938
     30 H11        -0.5480    4.4040    2.7200 hc        1 MOL     -0.052754
     31 H12        -0.9620    6.0900    2.9050 hc        1 MOL     -0.052754
     32 H13        -2.0410    6.9700   -0.4270 hc        1 MOL      0.057905
     33 H14        -1.7740    7.4630    1.1690 hc        1 MOL      0.057905
     34 H15        -0.4350    7.0930    0.1530 hc        1 MOL      0.057905
     35 H16         1.0760    6.7600    1.4840 hc        1 MOL      0.044373
     36 H17         1.5720    5.7300    2.8040 hc        1 MOL      0.044373
     37 H18         1.4240    4.9560    1.3010 hc        1 MOL      0.044373
     38 N3         -4.3050    3.8500   -0.5400 n         1 MOL     -0.583755
     39 C13        -5.3270    3.8890   -1.5980 c3        1 MOL      0.200241
     40 C14        -6.5160    2.9520   -1.4150 c         1 MOL      0.353929
     41 O6         -7.5450    3.0170   -2.1500 o         1 MOL     -0.535167
     42 C15        -4.7500    3.6960   -2.9940 c3        1 MOL     -0.376626
     43 C16        -3.9670    2.3450   -3.1990 c         1 MOL      0.883560
     44 O7         -3.5670    2.1220   -4.3300 o         1 MOL     -0.723596
     45 O8         -3.7300    1.5470   -2.2990 o         1 MOL     -0.723596
     46 H19        -3.7780    2.9890   -0.5090 hn        1 MOL      0.360810
     47 H20        -5.8210    4.8600   -1.5990 h1        1 MOL      0.060613
     48 H21        -4.1330    4.5660   -3.1980 hc        1 MOL      0.085230
     49 H22        -5.5750    3.6540   -3.7180 hc        1 MOL      0.085230
     50 N4         -6.4290    2.1100   -0.3760 n         1 MOL      0.001260
     51 C17        -7.6110    1.4510    0.1660 c3        1 MOL     -0.391187
     52 C18        -8.0040    0.1150   -0.5890 c         1 MOL      0.790380
     53 O9         -9.1160    0.0470   -1.0870 o         1 MOL     -0.617808
     54 H23        -5.5210    1.9050    0.0160 hn        1 MOL      0.073393
     55 H24        -8.4290    2.1610    0.2890 h1        1 MOL      0.115654
     56 H25        -7.3090    1.2490    1.1980 h1        1 MOL      0.115654
     57 N5         -7.1780   -0.9740   -0.5640 n         1 MOL     -0.535222
     58 C19        -7.3500   -2.3100   -1.1850 c3        1 MOL      0.201693
     59 C20        -7.1920   -3.4380   -0.1060 c         1 MOL      0.383641
     60 O10        -7.3370   -4.5650   -0.4530 o         1 MOL     -0.539468
     61 C21        -6.4160   -2.4110   -2.4230 c3        1 MOL     -0.154613
     62 C22        -4.9840   -1.9020   -2.0410 c         1 MOL      0.731808
     63 O11        -4.3920   -1.2270   -2.8740 o         1 MOL     -0.720540
     64 O12        -4.4820   -2.1200   -0.9580 o         1 MOL     -0.720540
     65 H26        -6.2800   -0.8550   -0.1190 hn        1 MOL      0.177024
     66 H27        -8.3410   -2.5230   -1.5860 h1        1 MOL      0.020960
     67 H28        -6.7630   -1.6990   -3.1740 hc        1 MOL      0.042349
     68 H29        -6.4020   -3.4000   -2.8900 hc        1 MOL      0.042349
     69 N6         -6.6490   -3.1430    1.0630 n         1 MOL     -0.232717
     70 C23        -6.2000   -4.0720    2.0380 c3        1 MOL     -0.022297
     71 C24        -4.8390   -4.7730    1.8470 c         1 MOL      0.434898
     72 O13        -4.4820   -5.7580    2.5350 o         1 MOL     -0.590034
     73 H30        -6.3970   -2.1750    1.2210 hn        1 MOL      0.158127
     74 H31        -6.9210   -4.7800    2.4550 h1        1 MOL      0.056943
     75 H32        -6.0640   -3.4060    2.8840 h1        1 MOL      0.056943
     76 N7         -3.9760   -4.2300    0.9690 n         1 MOL     -0.220785
     77 C25        -2.6190   -4.7000    0.7760 c3        1 MOL      0.075120
     78 C26        -1.6710   -3.5390    0.9050 c         1 MOL      0.608777
     79 O14        -2.0140   -2.4570    0.4950 o         1 MOL     -0.683775
     80 C27        -2.3130   -5.5350   -0.5060 c3        1 MOL     -0.028764
     81 C28        -2.4800   -4.8230   -1.8890 c3        1 MOL     -0.248706
     82 C29        -1.4190   -3.8280   -2.2850 c         1 MOL      0.622247
     83 N8         -0.2280   -4.2310   -2.6190 n         1 MOL     -0.706075
     84 O15        -1.6250   -2.6310   -2.3520 o         1 MOL     -0.553914
     85 H33        -4.3120   -3.4790    0.3670 hn        1 MOL      0.256756
     86 H34        -2.4190   -5.4310    1.5600 h1        1 MOL      0.022445
     87 H35        -3.0050   -6.3770   -0.3950 hc        1 MOL      0.017826
     88 H36        -1.3260   -5.9910   -0.4900 hc        1 MOL      0.017826
     89 H37        -3.3330   -4.1590   -1.7930 hc        1 MOL      0.083180
     90 H38        -2.6370   -5.5860   -2.6540 hc        1 MOL      0.083180
     91 H39        -0.0460   -5.2070   -2.8130 hn        1 MOL      0.327727
     92 H40         0.5020   -3.5370   -2.6640 hn        1 MOL      0.327727
     93 N9         -0.5030   -3.8380    1.4270 n         1 MOL     -0.495216
     94 C30         0.5660   -2.8620    1.6750 c3        1 MOL      0.178810
     95 C31         1.8310   -3.1830    0.7880 c         1 MOL      0.179507
     96 O16         2.5160   -4.2320    1.0560 o         1 MOL     -0.529746
     97 C32         0.8590   -3.0060    3.1860 c3        1 MOL      0.237892
     98 C33         2.1190   -2.2320    3.5560 c3        1 MOL     -0.291372
     99 C34        -0.2850   -2.4700    4.1220 c3        1 MOL     -0.291372
    100 H41        -0.1930   -4.7640    1.6980 hn        1 MOL      0.281131
    101 H42         0.2170   -1.8560    1.4540 h1        1 MOL      0.142351
    102 H43         0.9160   -4.0400    3.5300 hc        1 MOL     -0.033079
    103 H44         2.2410   -2.0750    4.6300 hc        1 MOL      0.058688
    104 H45         3.0400   -2.6240    3.1420 hc        1 MOL      0.058688
    105 H46         2.0550   -1.2580    3.0610 hc        1 MOL      0.058688
    106 H47        -0.3560   -1.3950    3.9660 hc        1 MOL      0.058688
    107 H48        -1.2050   -2.9530    3.8090 hc        1 MOL      0.058688
    108 H49        -0.0770   -2.6320    5.1790 hc        1 MOL      0.058688
    109 N10         2.1320   -2.3920   -0.2360 n         1 MOL      0.009345
    110 C35         3.4190   -2.4950   -0.9400 c3        1 MOL     -0.030931
    111 C36         4.5930   -2.0090   -0.1720 c         1 MOL      0.472268
    112 O17         4.4150   -1.2790    0.8260 o         1 MOL     -0.322064
    113 C37         3.3010   -1.7250   -2.2580 c3        1 MOL     -0.489526
    114 C38         2.1190   -2.1040   -3.0990 c         1 MOL      0.766362
    115 N11         1.0070   -1.4030   -3.0990 n         1 MOL     -0.785736
    116 O18         2.1020   -3.0280   -3.9220 o         1 MOL     -0.635247
    117 H50         1.4890   -1.6730   -0.5410 hn        1 MOL      0.157239
    118 H51         3.4620   -3.5600   -1.1440 h1        1 MOL      0.069178
    119 H52         4.1860   -1.7390   -2.8840 hc        1 MOL      0.153154
    120 H53         3.1830   -0.7250   -1.8430 hc        1 MOL      0.153154
    121 H54         0.9020   -0.6640   -2.4190 hn        1 MOL      0.394798
    122 H55         0.3170   -1.6540   -3.7850 hn        1 MOL      0.394798
    123 N12         5.7650   -2.2070   -0.8070 n         1 MOL     -0.552854
    124 C39         6.9390   -1.5810   -0.2350 c3        1 MOL      0.192916
    125 C40         6.9930   -0.0690   -0.3840 c         1 MOL      0.498956
    126 O19         7.4280    0.6350    0.5000 o         1 MOL     -0.505174
    127 C41         8.1600   -2.0570   -1.1230 c3        1 MOL     -0.154475
    128 C42         9.5260   -1.5950   -0.6060 ca        1 MOL     -0.026467
    129 C43         9.9140   -2.0950    0.6340 ca        1 MOL     -0.077233
    130 C44        10.3970   -0.8170   -1.3500 ca        1 MOL     -0.077233
    131 C45        11.2520   -1.8860    1.0770 ca        1 MOL     -0.333713
    132 C46        11.6980   -0.6160   -0.8840 ca        1 MOL     -0.333713
    133 C47        12.1610   -1.1470    0.3550 ca        1 MOL      0.450892
    134 O20        13.4440   -0.9820    0.6780 oh        1 MOL     -0.551053
    135 H56         5.8900   -2.6470   -1.7030 hn        1 MOL      0.334596
    136 H57         7.2120   -1.9050    0.7630 h1        1 MOL      0.057804
    137 H58         7.9420   -1.5980   -2.0930 hc        1 MOL      0.050680
    138 H59         8.1660   -3.1440   -1.2570 hc        1 MOL      0.050680
    139 H60         9.2800   -2.7540    1.1980 ha        1 MOL      0.127692
    140 H61        10.1760   -0.3430   -2.2940 ha        1 MOL      0.127692
    141 H62        11.4880   -2.2540    2.0620 ha        1 MOL      0.143207
    142 H63        12.3600   -0.1170   -1.5660 ha        1 MOL      0.143207
    143 H64        13.9610   -0.3810    0.1380 ho        1 MOL      0.389311
    144 N13         6.3150    0.4850   -1.4290 n         1 MOL     -0.435234
    145 C48         6.0110    1.9180   -1.5690 c3        1 MOL      0.081918
    146 C49         5.1790    2.4490   -0.3560 c         1 MOL      0.315506
    147 O21         5.2250    3.5960    0.0190 o         1 MOL     -0.521473
    148 C50         5.3010    1.9890   -2.9150 c3        1 MOL     -0.029382
    149 C51         5.1470    3.5180   -3.3590 c3        1 MOL     -0.226320
    150 C52         4.0980    3.6350   -4.5040 c         1 MOL      0.747765
    151 O22         2.9270    3.9350   -4.1970 o         1 MOL     -0.743028
    152 O23         4.4790    3.5640   -5.7130 o         1 MOL     -0.743028
    153 H65         6.0980   -0.1270   -2.1990 hn        1 MOL      0.258722
    154 H66         6.8860    2.5750   -1.5990 h1        1 MOL      0.064155
    155 H67         4.3490    1.4860   -2.7610 hc        1 MOL     -0.003097
    156 H68         5.8050    1.4670   -3.7330 hc        1 MOL     -0.003097
    157 H69         6.1090    3.8010   -3.7990 hc        1 MOL      0.035659
    158 H70         4.8580    4.1320   -2.5080 hc        1 MOL      0.035659
    159 N14         4.3380    1.6170    0.2140 n         1 MOL      0.063984
    160 C53         3.4660    2.0330    1.3530 c3        1 MOL     -0.032111
    161 C54         4.1100    1.8610    2.7500 c         1 MOL      0.359980
    162 O24         3.8460    2.6760    3.6620 o         1 MOL     -0.530189
    163 C55         2.0570    1.4430    1.1890 c3        1 MOL      0.164416
    164 C56         1.2940    1.7310   -0.1290 c3        1 MOL      0.004689
    165 C57         0.0640    0.9190   -0.4120 c         1 MOL      0.548431
    166 O25        -1.0170    1.5540   -0.5990 o         1 MOL     -0.663629
    167 O26         0.1160   -0.3070   -0.6270 o         1 MOL     -0.663629
    168 H71         4.4150    0.6300    0.0390 hn        1 MOL      0.033323
    169 H72         3.2210    3.0840    1.2110 h1        1 MOL      0.099192
    170 H73         1.4410    1.8380    2.0020 hc        1 MOL     -0.052582
    171 H74         2.1100    0.3710    1.3330 hc        1 MOL     -0.052582
    172 H75         2.0440    1.6170   -0.9100 hc        1 MOL      0.007205
    173 H76         0.9630    2.7630   -0.1240 hc        1 MOL      0.007205
    174 N15         4.9540    0.8460    2.8960 n         1 MOL     -0.001404
    175 C58         5.8380    0.5380    4.0080 c3        1 MOL     -0.266449
    176 H77         6.8680    0.7600    3.7250 h1        1 MOL      0.094585
    177 H78         5.5610    1.1430    4.8710 h1        1 MOL      0.094585
    178 H79         5.7520   -0.5190    4.2600 h1        1 MOL      0.094585
    179 H80         5.0690    0.2440    2.0960 hn        1 MOL      0.023606
    180 Ca1        -2.5800   -0.3720   -1.2770 Ca        1 MOL      1.734337
    181 O27        -1.6490    0.2840   -3.7050 oh        1 MOL     -0.891708
    182 H81        -2.2830    0.9590   -3.9340 ho        1 MOL      0.407739
    183 H82        -1.1390    0.1500   -4.5010 ho        1 MOL      0.407739
@<TRIPOS>BOND
     1    1    2 1   
     2    1    4 1   
     3    1    5 1   
     4    1    6 1   
     5    2    3 2   
     6    2    7 1   
     7    7    8 1   
     8    7   15 1   
     9    8    9 1   
    10    8   11 1   
    11    8   16 1   
    12    9   10 2   
    13    9   19 1   
    14   11   12 1   
    15   11   17 1   
    16   11   18 1   
    17   12   13 1   
    18   12   14 1   
    19   19   20 1   
    20   19   27 1   
    21   20   21 1   
    22   20   23 1   
    23   20   28 1   
    24   21   22 2   
    25   21   38 1   
    26   23   24 1   
    27   23   25 1   
    28   23   29 1   
    29   24   26 1   
    30   24   30 1   
    31   24   31 1   
    32   25   32 1   
    33   25   33 1   
    34   25   34 1   
    35   26   35 1   
    36   26   36 1   
    37   26   37 1   
    38   38   39 1   
    39   38   46 1   
    40   39   40 1   
    41   39   42 1   
    42   39   47 1   
    43   40   41 2   
    44   40   50 1   
    45   42   43 1   
    46   42   48 1   
    47   42   49 1   
    48   43   44 1   
    49   43   45 1   
    50   50   51 1   
    51   50   54 1   
    52   51   52 1   
    53   51   55 1   
    54   51   56 1   
    55   52   53 2   
    56   52   57 1   
    57   57   58 1   
    58   57   65 1   
    59   58   59 1   
    60   58   61 1   
    61   58   66 1   
    62   59   60 2   
    63   59   69 1   
    64   61   62 1   
    65   61   67 1   
    66   61   68 1   
    67   62   63 1   
    68   62   64 1   
    69   69   70 1   
    70   69   73 1   
    71   70   71 1   
    72   70   74 1   
    73   70   75 1   
    74   71   72 2   
    75   71   76 1   
    76   76   77 1   
    77   76   85 1   
    78   77   78 1   
    79   77   80 1   
    80   77   86 1   
    81   78   79 2   
    82   78   93 1   
    83   80   81 1   
    84   80   87 1   
    85   80   88 1   
    86   81   82 1   
    87   81   89 1   
    88   81   90 1   
    89   82   83 1   
    90   82   84 2   
    91   83   91 1   
    92   83   92 1   
    93   93   94 1   
    94   93  100 1   
    95   94   95 1   
    96   94   97 1   
    97   94  101 1   
    98   95   96 2   
    99   95  109 1   
   100   97   98 1   
   101   97   99 1   
   102   97  102 1   
   103   98  103 1   
   104   98  104 1   
   105   98  105 1   
   106   99  106 1   
   107   99  107 1   
   108   99  108 1   
   109  109  110 1   
   110  109  117 1   
   111  110  111 1   
   112  110  113 1   
   113  110  118 1   
   114  111  112 2   
   115  111  123 1   
   116  113  114 1   
   117  113  119 1   
   118  113  120 1   
   119  114  115 1   
   120  114  116 2   
   121  115  121 1   
   122  115  122 1   
   123  123  124 1   
   124  123  135 1   
   125  124  125 1   
   126  124  127 1   
   127  124  136 1   
   128  125  126 2   
   129  125  144 1   
   130  127  128 1   
   131  127  137 1   
   132  127  138 1   
   133  128  129 ar  
   134  128  130 ar  
   135  129  131 ar  
   136  129  139 1   
   137  130  132 ar  
   138  130  140 1   
   139  131  133 ar  
   140  131  141 1   
   141  132  133 ar  
   142  132  142 1   
   143  133  134 1   
   144  134  143 1   
   145  144  145 1   
   146  144  153 1   
   147  145  146 1   
   148  145  148 1   
   149  145  154 1   
   150  146  147 2   
   151  146  159 1   
   152  148  149 1   
   153  148  155 1   
   154  148  156 1   
   155  149  150 1   
   156  149  157 1   
   157  149  158 1   
   158  150  151 1   
   159  150  152 1   
   160  159  160 1   
   161  159  168 1   
   162  160  161 1   
   163  160  163 1   
   164  160  169 1   
   165  161  162 2   
   166  161  174 1   
   167  163  164 1   
   168  163  170 1   
   169  163  171 1   
   170  164  165 1   
   171  164  172 1   
   172  164  173 1   
   173  165  166 1   
   174  165  167 1   
   175  174  175 1   
   176  174  179 1   
   177  175  176 1   
   178  175  177 1   
   179  175  178 1   
   180  181  182 1   
   181  181  183 1   
@<TRIPOS>SUBSTRUCTURE
     1 MOL         1 TEMP              0 ****  ****    0 ROOT
