@<TRIPOS>MOLECULE
MOL
  175   173     1     0     0
SMALL
resp


@<TRIPOS>ATOM
      1 C1         -0.5500    3.4010    5.9130 c3        1 MOL     -0.321012
      2 C2         -1.0330    3.1930    4.4320 c         1 MOL      0.708693
      3 O1         -0.3900    3.7910    3.5250 o         1 MOL     -0.597109
      4 H1         -0.8750    4.3790    6.2660 hc        1 MOL      0.081342
      5 H2         -0.9790    2.6250    6.5470 hc        1 MOL      0.081342
      6 H3          0.5380    3.3430    5.9520 hc        1 MOL      0.081342
      7 N1         -2.0940    2.4990    4.0960 n         1 MOL     -0.589480
      8 C3         -2.5750    2.2550    2.7430 c3        1 MOL      0.159010
      9 C4         -3.0840    3.5270    2.0520 c         1 MOL      0.593366
     10 O2         -4.1000    4.1310    2.3990 o         1 MOL     -0.577286
     11 C5         -3.6240    1.1040    2.7980 c3        1 MOL     -0.297160
     12 C6         -4.2280    0.6320    1.4860 c         1 MOL      1.006446
     13 O3         -5.4230    0.2320    1.4610 o         1 MOL     -0.799550
     14 O4         -3.5120    0.7680    0.4660 o         1 MOL     -0.799550
     15 H4         -2.5750    2.0290    4.8520 hn        1 MOL      0.315525
     16 H5         -1.7720    1.8810    2.1030 h1        1 MOL      0.066429
     17 H6         -4.3850    1.5500    3.4420 hc        1 MOL      0.035671
     18 H7         -3.1360    0.2690    3.2980 hc        1 MOL      0.035671
     19 N2         -2.3730    3.9700    0.9470 n         1 MOL     -0.452537
     20 C7         -2.7300    5.1690    0.1620 c3        1 MOL      0.397315
     21 C8         -3.5080    4.9540   -1.1780 c         1 MOL      0.401384
     22 O5         -4.2670    5.8830   -1.4960 o         1 MOL     -0.580525
     23 C9         -1.5610    6.2300   -0.0170 c3        1 MOL     -0.332029
     24 H8         -1.5920    3.3750    0.6890 hn        1 MOL      0.233192
     25 H9         -3.4530    5.6890    0.7940 h1        1 MOL      0.000542
     26 H10        -2.0560    7.1420   -0.3590 hc        1 MOL      0.078748
     27 H11        -1.1380    6.4420    0.9710 hc        1 MOL      0.078748
     28 H12        -0.8760    5.8900   -0.7900 hc        1 MOL      0.078748
     29 N3         -3.4730    3.7320   -1.7660 n         1 MOL     -0.311991
     30 C10        -4.4640    3.3920   -2.7710 c3        1 MOL      0.091903
     31 C11        -5.7290    2.7210   -2.2000 c         1 MOL      0.420135
     32 O6         -6.4440    2.1400   -2.9830 o         1 MOL     -0.505429
     33 C12        -4.0140    2.7810   -4.0460 c3        1 MOL     -0.145484
     34 C13        -3.1100    1.5390   -3.9860 c         1 MOL      0.731764
     35 O7         -2.9670    0.8720   -2.9510 o         1 MOL     -0.720448
     36 O8         -2.4550    1.1520   -4.9840 o         1 MOL     -0.720448
     37 H13        -2.9350    3.0330   -1.2660 hn        1 MOL      0.190434
     38 H14        -4.8980    4.2870   -3.2210 h1        1 MOL      0.101334
     39 H15        -3.3140    3.5430   -4.3980 hc        1 MOL      0.024066
     40 H16        -4.8610    2.8140   -4.7280 hc        1 MOL      0.024066
     41 N4         -5.9780    2.6880   -0.8500 n         1 MOL     -0.243630
     42 C14        -7.2170    2.1850   -0.1580 c3        1 MOL     -0.207339
     43 C15        -7.7110    0.7540   -0.4860 c         1 MOL      0.538255
     44 O9         -8.9690    0.4970   -0.4710 o         1 MOL     -0.607378
     45 H17        -5.1280    2.9020   -0.3420 hn        1 MOL      0.158860
     46 H18        -8.0330    2.8760   -0.3150 h1        1 MOL      0.126762
     47 H19        -6.7970    2.0880    0.8510 h1        1 MOL      0.126762
     48 N5         -6.8820   -0.1730   -0.9330 n         1 MOL     -0.174553
     49 C16        -7.1890   -1.4730   -1.5070 c3        1 MOL      0.046885
     50 C17        -7.1420   -2.5330   -0.3690 c         1 MOL      0.360918
     51 O10        -7.8150   -3.5720   -0.4810 o         1 MOL     -0.533399
     52 C18        -6.1930   -1.7350   -2.6840 c3        1 MOL     -0.274988
     53 C19        -4.8710   -2.3450   -2.1650 c         1 MOL      0.790579
     54 N6         -4.7100   -3.6380   -2.2570 n         1 MOL     -0.858980
     55 O11        -4.0510   -1.6720   -1.7120 o         1 MOL     -0.626830
     56 H20        -5.9050    0.0710   -0.8630 hn        1 MOL      0.136574
     57 H21        -8.2230   -1.4840   -1.8390 h1        1 MOL      0.111952
     58 H22        -5.9460   -0.7640   -3.1010 hc        1 MOL      0.091576
     59 H23        -6.6870   -2.3980   -3.3900 hc        1 MOL      0.091576
     60 H24        -5.4030   -4.2550   -2.6590 hn        1 MOL      0.357451
     61 H25        -3.8760   -4.1390   -1.9810 hn        1 MOL      0.357451
     62 N7         -6.3560   -2.3000    0.7710 n         1 MOL     -0.106091
     63 C20        -6.3500   -3.1710    1.9700 c3        1 MOL     -0.236935
     64 C21        -5.0950   -4.0150    2.1510 c         1 MOL      0.524377
     65 O12        -5.0220   -5.0370    2.8570 o         1 MOL     -0.567126
     66 H26        -5.8960   -1.4010    0.7590 hn        1 MOL      0.208192
     67 H27        -7.2590   -3.7700    1.9330 h1        1 MOL      0.125306
     68 H28        -6.4270   -2.5490    2.8610 h1        1 MOL      0.125306
     69 N8         -4.0630   -3.7180    1.3470 n         1 MOL     -0.196460
     70 C22        -2.6900   -4.1100    1.4760 c3        1 MOL     -0.072028
     71 C23        -1.6810   -3.0180    1.4180 c         1 MOL      0.663106
     72 O13        -1.8700   -1.9580    0.8370 o         1 MOL     -0.635973
     73 C24        -2.2780   -5.1800    0.4220 c3        1 MOL      0.320880
     74 C25        -3.0320   -6.5310    0.4620 c3        1 MOL     -0.470476
     75 O14        -2.4730   -4.7330   -0.8710 oh        1 MOL     -0.614909
     76 H29        -4.2320   -2.8910    0.7940 hn        1 MOL      0.116724
     77 H30        -2.5570   -4.5720    2.4600 h1        1 MOL      0.080783
     78 H31        -1.2330   -5.4210    0.6210 h1        1 MOL      0.012911
     79 H32        -2.5630   -5.4470   -1.5040 ho        1 MOL      0.412787
     80 H33        -3.0010   -6.8450    1.4980 hc        1 MOL      0.132053
     81 H34        -4.0880   -6.3480    0.2900 hc        1 MOL      0.132053
     82 H35        -2.6470   -7.2380   -0.2730 hc        1 MOL      0.132053
     83 N9         -0.5060   -3.3100    2.0110 n         1 MOL     -0.454025
     84 C26         0.6810   -2.5260    1.9830 c3        1 MOL     -0.066410
     85 C27         1.6300   -2.9430    0.8920 c         1 MOL      0.571336
     86 O15         2.0820   -4.1210    0.8850 o         1 MOL     -0.616195
     87 C28         1.3470   -2.3310    3.3440 c3        1 MOL      0.148630
     88 C29         0.3810   -1.9070    4.4780 c3        1 MOL      0.213473
     89 C30         2.4170   -1.2310    3.2410 c3        1 MOL     -0.194095
     90 C31         0.8920   -2.2370    5.9020 c3        1 MOL     -0.357282
     91 H36        -0.5020   -4.1880    2.5240 hn        1 MOL      0.263239
     92 H37         0.4320   -1.5270    1.6180 h1        1 MOL      0.067441
     93 H38         1.8240   -3.2610    3.6670 hc        1 MOL     -0.004434
     94 H39        -0.5510   -2.4480    4.3720 hc        1 MOL     -0.038729
     95 H40         0.0950   -0.8500    4.5350 hc        1 MOL     -0.038729
     96 H41         3.0090   -1.4580    2.3510 hc        1 MOL      0.035157
     97 H42         1.9500   -0.2550    3.1790 hc        1 MOL      0.035157
     98 H43         3.0530   -1.3100    4.1180 hc        1 MOL      0.035157
     99 H44         1.0370   -3.3150    5.9480 hc        1 MOL      0.074160
    100 H45         1.8130   -1.6740    6.0350 hc        1 MOL      0.074160
    101 H46         0.1360   -1.8450    6.5890 hc        1 MOL      0.074160
    102 N10         2.0720   -2.0160    0.0160 n         1 MOL     -0.307910
    103 C32         3.1370   -2.2620   -1.0080 c3        1 MOL      0.154125
    104 C33         4.3710   -1.4330   -0.4990 c         1 MOL      0.227102
    105 O16         4.3370   -0.4980    0.3240 o         1 MOL     -0.217268
    106 C34         2.5530   -1.6910   -2.3200 c3        1 MOL     -0.197669
    107 C35         3.3030   -2.2090   -3.5070 c         1 MOL      0.646531
    108 O17         4.4610   -2.7270   -3.3750 o         1 MOL     -0.689437
    109 O18         2.8250   -1.9640   -4.6750 o         1 MOL     -0.689437
    110 H47         1.8260   -1.0340    0.0250 hn        1 MOL      0.194168
    111 H48         3.4530   -3.3030   -1.1460 h1        1 MOL      0.071746
    112 H49         2.5980   -0.6150   -2.2200 hc        1 MOL      0.054702
    113 H50         1.5060   -1.9620   -2.4760 hc        1 MOL      0.054702
    114 N11         5.5960   -1.7730   -1.0770 n         1 MOL     -0.489679
    115 C36         6.8970   -1.2220   -0.7560 c3        1 MOL      0.406090
    116 C37         6.9660    0.2660   -0.6490 c         1 MOL      0.324620
    117 O19         7.4870    0.7070    0.3220 o         1 MOL     -0.493374
    118 C38         7.9790   -1.8650   -1.6490 c3        1 MOL     -0.240301
    119 C39         9.3690   -1.6220   -1.0680 ca        1 MOL      0.253965
    120 C40         9.7520   -2.1080    0.1690 ca        1 MOL     -0.286749
    121 C41        10.3150   -1.0400   -1.8620 ca        1 MOL     -0.286749
    122 C42        10.9400   -1.7940    0.7850 ca        1 MOL     -0.036020
    123 C43        11.6090   -0.7810   -1.3260 ca        1 MOL     -0.036020
    124 C44        11.8650   -1.1580   -0.0350 ca        1 MOL     -0.138891
    125 H51         5.6720   -2.5930   -1.6700 hn        1 MOL      0.287108
    126 H52         7.1820   -1.6260    0.2150 h1        1 MOL     -0.019128
    127 H53         7.9600   -1.4060   -2.6360 hc        1 MOL      0.072442
    128 H54         7.7900   -2.9310   -1.7820 hc        1 MOL      0.072442
    129 H55         9.0040   -2.6420    0.7580 ha        1 MOL      0.136117
    130 H56        10.0460   -0.7650   -2.8650 ha        1 MOL      0.136117
    131 H57        11.2160   -2.1830    1.7590 ha        1 MOL      0.094300
    132 H58        12.4140   -0.3010   -1.8770 ha        1 MOL      0.094300
    133 H59        12.8980   -0.9650    0.2500 ha        1 MOL      0.073811
    134 N12         6.4180    1.0380   -1.6100 n         1 MOL     -0.123794
    135 C45         6.3680    2.5250   -1.5520 c3        1 MOL      0.008751
    136 C46         5.7240    3.0710   -0.2670 c         1 MOL      0.383315
    137 O20         6.1980    4.0800    0.2160 o         1 MOL     -0.496251
    138 C47         5.5910    2.9770   -2.7920 c3        1 MOL     -0.212930
    139 C48         4.8780    1.7410   -3.2020 c3        1 MOL     -0.015682
    140 C49         5.8840    0.6470   -2.8970 c3        1 MOL      0.061608
    141 H60         7.3590    2.9870   -1.5660 h1        1 MOL      0.056704
    142 H61         4.8310    3.7500   -2.6840 hc        1 MOL      0.080774
    143 H62         6.2470    3.2450   -3.6120 hc        1 MOL      0.080774
    144 H63         4.0270    1.4710   -2.5790 hc        1 MOL      0.033682
    145 H64         4.5700    1.7600   -4.2580 hc        1 MOL      0.033682
    146 H65         5.4030   -0.3290   -2.8490 h1        1 MOL      0.013949
    147 H66         6.6920    0.6090   -3.6360 h1        1 MOL      0.013949
    148 N13         4.6230    2.3690    0.1970 n         1 MOL     -0.077860
    149 C50         3.8450    2.8450    1.3050 c3        1 MOL     -0.260060
    150 C51         4.4900    2.3910    2.6710 c         1 MOL      0.445683
    151 O21         4.5330    3.0920    3.7210 o         1 MOL     -0.561177
    152 C52         2.4690    2.1740    1.3540 c3        1 MOL      0.193909
    153 C53         1.6740    2.4610    0.0570 c3        1 MOL     -0.227097
    154 C54         0.3960    1.6060   -0.0520 c         1 MOL      0.800980
    155 O22         0.3690    0.3550    0.3120 o         1 MOL     -0.771930
    156 O23        -0.6930    2.1550   -0.3910 o         1 MOL     -0.771930
    157 H67         4.3280    1.5660   -0.3430 hn        1 MOL      0.196395
    158 H68         3.7180    3.9240    1.3210 h1        1 MOL      0.128918
    159 H69         1.8650    2.4540    2.2160 hc        1 MOL      0.018220
    160 H70         2.6170    1.0980    1.4810 hc        1 MOL      0.018220
    161 H71         2.2770    2.1810   -0.8050 hc        1 MOL      0.037677
    162 H72         1.4940    3.5290    0.0050 hc        1 MOL      0.037677
    163 N14         5.0270    1.1510    2.6570 n         1 MOL     -0.044657
    164 C55         5.8170    0.5260    3.7660 c3        1 MOL     -0.223924
    165 H73         5.6000    1.0430    4.7010 h1        1 MOL      0.088390
    166 H74         5.5430   -0.5240    3.8590 h1        1 MOL      0.088390
    167 H75         6.8810    0.6070    3.5450 h1        1 MOL      0.088390
    168 H76         4.9060    0.6360    1.7960 hn        1 MOL      0.004454
    169 Ca1        -1.7870   -0.3000   -1.1240 Ca        1 MOL      1.783787
    170 O24        -0.0270    0.5760   -2.9630 oh        1 MOL     -0.884227
    171 H77        -0.5350    1.1600   -3.5270 ho        1 MOL      0.421833
    172 H78         0.8260    0.5110   -3.3930 ho        1 MOL      0.421833
    173 O25        -1.1140   -2.7310   -2.1120 oh        1 MOL     -0.884227
    174 H79        -1.2240   -2.9360   -3.0400 ho        1 MOL      0.421833
    175 H80        -1.3310   -3.5440   -1.6640 ho        1 MOL      0.421833
@<TRIPOS>BOND
     1    1    2 1   
     2    1    4 1   
     3    1    5 1   
     4    1    6 1   
     5    2    3 2   
     6    2    7 1   
     7    7    8 1   
     8    7   15 1   
     9    8    9 1   
    10    8   11 1   
    11    8   16 1   
    12    9   10 2   
    13    9   19 1   
    14   11   12 1   
    15   11   17 1   
    16   11   18 1   
    17   12   13 1   
    18   12   14 1   
    19   19   20 1   
    20   19   24 1   
    21   20   21 1   
    22   20   23 1   
    23   20   25 1   
    24   21   22 2   
    25   21   29 1   
    26   23   26 1   
    27   23   27 1   
    28   23   28 1   
    29   29   30 1   
    30   29   37 1   
    31   30   31 1   
    32   30   33 1   
    33   30   38 1   
    34   31   32 2   
    35   31   41 1   
    36   33   34 1   
    37   33   39 1   
    38   33   40 1   
    39   34   35 1   
    40   34   36 1   
    41   41   42 1   
    42   41   45 1   
    43   42   43 1   
    44   42   46 1   
    45   42   47 1   
    46   43   44 2   
    47   43   48 1   
    48   48   49 1   
    49   48   56 1   
    50   49   50 1   
    51   49   52 1   
    52   49   57 1   
    53   50   51 2   
    54   50   62 1   
    55   52   53 1   
    56   52   58 1   
    57   52   59 1   
    58   53   54 1   
    59   53   55 2   
    60   54   60 1   
    61   54   61 1   
    62   62   63 1   
    63   62   66 1   
    64   63   64 1   
    65   63   67 1   
    66   63   68 1   
    67   64   65 2   
    68   64   69 1   
    69   69   70 1   
    70   69   76 1   
    71   70   71 1   
    72   70   73 1   
    73   70   77 1   
    74   71   72 2   
    75   71   83 1   
    76   73   74 1   
    77   73   75 1   
    78   73   78 1   
    79   74   80 1   
    80   74   81 1   
    81   74   82 1   
    82   75   79 1   
    83   83   84 1   
    84   83   91 1   
    85   84   85 1   
    86   84   87 1   
    87   84   92 1   
    88   85   86 2   
    89   85  102 1   
    90   87   88 1   
    91   87   89 1   
    92   87   93 1   
    93   88   90 1   
    94   88   94 1   
    95   88   95 1   
    96   89   96 1   
    97   89   97 1   
    98   89   98 1   
    99   90   99 1   
   100   90  100 1   
   101   90  101 1   
   102  102  103 1   
   103  102  110 1   
   104  103  104 1   
   105  103  106 1   
   106  103  111 1   
   107  104  105 2   
   108  104  114 1   
   109  106  107 1   
   110  106  112 1   
   111  106  113 1   
   112  107  108 1   
   113  107  109 1   
   114  114  115 1   
   115  114  125 1   
   116  115  116 1   
   117  115  118 1   
   118  115  126 1   
   119  116  117 2   
   120  116  134 1   
   121  118  119 1   
   122  118  127 1   
   123  118  128 1   
   124  119  120 ar  
   125  119  121 ar  
   126  120  122 ar  
   127  120  129 1   
   128  121  123 ar  
   129  121  130 1   
   130  122  124 ar  
   131  122  131 1   
   132  123  124 ar  
   133  123  132 1   
   134  124  133 1   
   135  134  135 1   
   136  134  140 1   
   137  135  136 1   
   138  135  138 1   
   139  135  141 1   
   140  136  137 2   
   141  136  148 1   
   142  138  139 1   
   143  138  142 1   
   144  138  143 1   
   145  139  140 1   
   146  139  144 1   
   147  139  145 1   
   148  140  146 1   
   149  140  147 1   
   150  148  149 1   
   151  148  157 1   
   152  149  150 1   
   153  149  152 1   
   154  149  158 1   
   155  150  151 2   
   156  150  163 1   
   157  152  153 1   
   158  152  159 1   
   159  152  160 1   
   160  153  154 1   
   161  153  161 1   
   162  153  162 1   
   163  154  155 1   
   164  154  156 1   
   165  163  164 1   
   166  163  168 1   
   167  164  165 1   
   168  164  166 1   
   169  164  167 1   
   170  170  171 1   
   171  170  172 1   
   172  173  174 1   
   173  173  175 1   
@<TRIPOS>SUBSTRUCTURE
     1 MOL         1 TEMP              0 ****  ****    0 ROOT
