@<TRIPOS>MOLECULE
MOL
  189   185     1     0     0
SMALL
resp


@<TRIPOS>ATOM
      1 C1         -0.0800    2.3320    5.7180 c3        1 MOL     -0.199399
      2 C2         -0.5560    1.9500    4.2740 c         1 MOL      0.617920
      3 O1          0.1840    2.2880    3.3800 o         1 MOL     -0.555548
      4 H1          0.9190    2.7650    5.6670 hc        1 MOL      0.047675
      5 H2         -0.7700    3.0580    6.1470 hc        1 MOL      0.047675
      6 H3         -0.0570    1.4380    6.3410 hc        1 MOL      0.047675
      7 N1         -1.7670    1.3770    4.1130 n         1 MOL     -0.526683
      8 C3         -2.2650    1.0180    2.7980 c3        1 MOL     -0.045935
      9 C4         -3.0720    2.1990    2.2650 c         1 MOL      0.613327
     10 O2         -4.2050    2.5430    2.6410 o         1 MOL     -0.545414
     11 C5         -3.1160   -0.2800    3.0010 c3        1 MOL     -0.220840
     12 C6         -3.8070   -0.8310    1.7280 c         1 MOL      0.775468
     13 O3         -3.4640   -0.4810    0.6070 o         1 MOL     -0.659928
     14 O4         -4.7720   -1.5720    1.9570 o         1 MOL     -0.659928
     15 H4         -2.2970    1.0290    4.8940 hn        1 MOL      0.328810
     16 H5         -1.3680    0.7620    2.2410 h1        1 MOL     -0.015893
     17 H6         -3.8990   -0.0680    3.7340 hc        1 MOL      0.053047
     18 H7         -2.4070   -1.0090    3.3830 hc        1 MOL      0.053047
     19 N2         -2.3890    3.0080    1.4730 n         1 MOL     -0.246939
     20 C7         -2.6830    4.4090    1.1940 c3        1 MOL      0.046156
     21 C8         -3.8010    4.5410    0.1890 c         1 MOL      0.514903
     22 O5         -4.7610    5.2050    0.5230 o         1 MOL     -0.553467
     23 C9         -1.3040    5.0800    0.8200 c3        1 MOL      0.034864
     24 C10        -1.4780    6.5640    0.2070 c3        1 MOL     -0.298547
     25 C11        -2.0480    7.5150    1.2520 c3        1 MOL      0.139821
     26 C12        -1.8700    8.9420    0.7530 c3        1 MOL     -0.031199
     27 N3         -2.7720    9.8210    1.5270 n4        1 MOL     -0.362513
     28 H8         -1.5060    2.6570    1.1140 hn        1 MOL      0.171849
     29 H9         -2.9470    4.9350    2.1020 h1        1 MOL      0.000183
     30 H10        -0.8010    4.4750    0.0720 hc        1 MOL      0.053350
     31 H11        -0.6110    5.1160    1.6560 hc        1 MOL      0.053350
     32 H12        -2.1980    6.5480   -0.6160 hc        1 MOL      0.061222
     33 H13        -0.4730    6.9110   -0.0410 hc        1 MOL      0.061222
     34 H14        -1.5170    7.3250    2.1800 hc        1 MOL      0.023823
     35 H15        -3.1220    7.3050    1.3060 hc        1 MOL      0.023823
     36 H16        -2.2640    9.1270   -0.2430 hx        1 MOL      0.102048
     37 H17        -0.8280    9.2580    0.8110 hx        1 MOL      0.102048
     38 H18        -2.2430    9.9450    2.3790 hn        1 MOL      0.324601
     39 H19        -2.9070   10.7540    1.1670 hn        1 MOL      0.324601
     40 H20        -3.7250    9.4930    1.6740 hn        1 MOL      0.324601
     41 N4         -3.7620    3.7650   -0.9110 n         1 MOL     -0.293806
     42 C13        -4.8680    3.5750   -1.8600 c3        1 MOL      0.000826
     43 C14        -5.9400    2.4830   -1.4310 c         1 MOL      0.380713
     44 O6         -7.0280    2.5050   -1.9580 o         1 MOL     -0.544312
     45 C15        -4.2390    3.1890   -3.1720 c3        1 MOL     -0.155342
     46 C16        -3.3080    1.9580   -3.2170 c         1 MOL      0.737722
     47 O7         -3.0690    1.3270   -2.1300 o         1 MOL     -0.677143
     48 O8         -2.7670    1.7270   -4.3170 o         1 MOL     -0.677143
     49 H21        -3.0600    3.0450   -0.9270 hn        1 MOL      0.112888
     50 H22        -5.3230    4.5520   -2.0270 h1        1 MOL      0.091938
     51 H23        -3.6060    4.0300   -3.4750 hc        1 MOL      0.041136
     52 H24        -5.0520    3.1130   -3.8920 hc        1 MOL      0.041136
     53 N5         -5.8500    1.6830   -0.4180 n         1 MOL      0.012812
     54 C17        -7.0790    0.9790    0.0790 c3        1 MOL     -0.252038
     55 C18        -7.3870   -0.4040   -0.5880 c         1 MOL      0.540392
     56 O9         -8.5190   -0.8990   -0.5380 o         1 MOL     -0.578631
     57 H25        -4.9090    1.6140   -0.0400 hn        1 MOL      0.037852
     58 H26        -7.9170    1.6830    0.0620 h1        1 MOL      0.131891
     59 H27        -6.8840    0.7490    1.1280 h1        1 MOL      0.131891
     60 N6         -6.3920   -1.0400   -1.2230 n         1 MOL     -0.241694
     61 C19        -6.4500   -2.3500   -1.9860 c3        1 MOL     -0.019618
     62 C20        -6.3330   -3.5710   -1.0740 c         1 MOL      0.387152
     63 O10        -6.5350   -4.6940   -1.5920 o         1 MOL     -0.540835
     64 C21        -5.4120   -2.3440   -3.2100 c3        1 MOL     -0.322278
     65 C22        -3.9990   -2.0160   -2.7330 c         1 MOL      0.675969
     66 O11        -3.5890   -2.4970   -1.6500 o         1 MOL     -0.633412
     67 O12        -3.2080   -1.3410   -3.4560 o         1 MOL     -0.633412
     68 H28        -5.5080   -0.5630   -1.1570 hn        1 MOL      0.167498
     69 H29        -7.4180   -2.2870   -2.4730 h1        1 MOL      0.124013
     70 H30        -5.7070   -1.6070   -3.9590 hc        1 MOL      0.116582
     71 H31        -5.3270   -3.3590   -3.5850 hc        1 MOL      0.116582
     72 N7         -5.8880   -3.4030    0.1590 n         1 MOL     -0.116947
     73 C23        -5.7380   -4.5310    1.0820 c3        1 MOL     -0.189453
     74 C24        -4.2870   -5.0510    1.2500 c         1 MOL      0.534678
     75 O13        -4.0760   -6.1260    1.8460 o         1 MOL     -0.580577
     76 H32        -5.5790   -2.5390    0.5880 hn        1 MOL      0.194754
     77 H33        -6.4130   -5.3370    0.8010 h1        1 MOL      0.100126
     78 H34        -6.0190   -4.1460    2.0570 h1        1 MOL      0.100126
     79 N8         -3.3070   -4.3590    0.7200 n         1 MOL     -0.111059
     80 C25        -1.9650   -4.9070    0.5220 c3        1 MOL     -0.285336
     81 C26        -0.8980   -3.7330    0.7170 c         1 MOL      0.540925
     82 O14        -1.1410   -2.5950    0.4000 o         1 MOL     -0.538703
     83 C27        -1.7040   -5.6260   -0.8130 c3        1 MOL      0.454851
     84 C28        -2.5270   -6.8890   -1.1390 c3        1 MOL     -0.588278
     85 O15        -2.0260   -4.7800   -1.8830 oh        1 MOL     -0.622126
     86 H35        -3.5300   -3.4640    0.3010 hn        1 MOL      0.068467
     87 H36        -1.8050   -5.5830    1.3580 h1        1 MOL      0.103437
     88 H37        -0.6280   -5.7940   -0.8810 h1        1 MOL     -0.012093
     89 H38        -2.6110   -4.0670   -1.6170 ho        1 MOL      0.446939
     90 H39        -3.5870   -6.7140   -1.3400 hc        1 MOL      0.154335
     91 H40        -2.1070   -7.2830   -2.0620 hc        1 MOL      0.154335
     92 H41        -2.4180   -7.6640   -0.3710 hc        1 MOL      0.154335
     93 N9          0.2450   -4.1690    1.2390 n         1 MOL     -0.316777
     94 C29         1.3210   -3.2470    1.4580 c3        1 MOL      0.029206
     95 C30         2.4970   -3.5480    0.5060 c         1 MOL      0.347204
     96 O16         3.0610   -4.6610    0.5220 o         1 MOL     -0.521204
     97 C31         1.6530   -3.3560    2.9750 c3        1 MOL      0.029608
     98 C32         0.5490   -2.9940    4.0220 c3        1 MOL      0.000239
     99 C33         2.8860   -2.4510    3.2760 c3        1 MOL     -0.124877
    100 C34         0.2350   -1.4610    4.1070 c3        1 MOL      0.024750
    101 H42         0.3560   -5.1440    1.4800 hn        1 MOL      0.261918
    102 H43         0.9680   -2.2360    1.2870 h1        1 MOL      0.006581
    103 H44         2.0270   -4.3450    3.2420 hc        1 MOL      0.031855
    104 H45         0.7260   -3.3480    5.0330 hc        1 MOL     -0.006116
    105 H46        -0.2770   -3.6290    3.6860 hc        1 MOL     -0.006116
    106 H47         3.0750   -2.4410    4.3500 hc        1 MOL      0.015028
    107 H48         3.7650   -2.8860    2.8040 hc        1 MOL      0.015028
    108 H49         2.8250   -1.4140    2.9510 hc        1 MOL      0.015028
    109 H50        -0.6030   -1.4000    4.8030 hc        1 MOL      0.016468
    110 H51         1.0460   -0.9010    4.5710 hc        1 MOL      0.016468
    111 H52        -0.0000   -1.0390    3.1400 hc        1 MOL      0.016468
    112 N10         2.7820   -2.5940   -0.2830 n         1 MOL     -0.078850
    113 C35         3.9090   -2.5740   -1.1790 c3        1 MOL     -0.065465
    114 C36         5.2430   -2.3880   -0.4550 c         1 MOL      0.253237
    115 O17         5.1540   -2.0540    0.7430 o         1 MOL     -0.295934
    116 C37         3.6950   -1.3940   -2.1880 c3        1 MOL      0.159099
    117 C38         2.6100   -1.4720   -3.2200 c3        1 MOL     -0.250711
    118 O18         3.3580   -0.2580   -1.3810 oh        1 MOL     -0.551728
    119 H53         2.1990   -1.7750   -0.3010 hn        1 MOL      0.192438
    120 H54         4.1210   -3.5190   -1.6820 h1        1 MOL      0.069944
    121 H55         4.6100   -1.3240   -2.7690 h1        1 MOL      0.068576
    122 H56         2.4380   -0.3840   -1.1320 ho        1 MOL      0.389618
    123 H57         2.9260   -0.9250   -4.1080 hc        1 MOL      0.073510
    124 H58         2.4130   -2.4950   -3.5740 hc        1 MOL      0.073510
    125 H59         1.6890   -1.0250   -2.8560 hc        1 MOL      0.073510
    126 N11         6.4170   -2.5400   -1.1120 n         1 MOL     -0.126551
    127 C39         7.7270   -2.1990   -0.5770 c3        1 MOL     -0.322962
    128 C40         7.7800   -0.7440   -0.1940 c         1 MOL      0.554472
    129 O19         8.4360   -0.4000    0.7970 o         1 MOL     -0.523851
    130 C41         8.8290   -2.5490   -1.5170 c3        1 MOL      0.303040
    131 C42         8.8790   -4.0380   -1.8730 c3        1 MOL     -0.347933
    132 O20         8.6640   -1.9960   -2.8110 oh        1 MOL     -0.667961
    133 H60         6.3960   -2.8860   -2.0490 hn        1 MOL      0.238942
    134 H61         7.8140   -2.8270    0.3070 h1        1 MOL      0.181704
    135 H62         9.7340   -2.1880   -1.0320 h1        1 MOL      0.060125
    136 H63         9.4180   -2.2800   -3.3380 ho        1 MOL      0.429175
    137 H64         9.7350   -4.2700   -2.5100 hc        1 MOL      0.097037
    138 H65         8.9710   -4.4940   -0.8840 hc        1 MOL      0.097037
    139 H66         7.9510   -4.4700   -2.2450 hc        1 MOL      0.097037
    140 N12         7.0690    0.1160   -0.8940 n         1 MOL     -0.285053
    141 C43         6.9470    1.5660   -0.7160 c3        1 MOL     -0.008382
    142 C44         6.0580    2.0410    0.4550 c         1 MOL      0.276810
    143 O21         6.4990    2.9310    1.2230 o         1 MOL     -0.494840
    144 C45         6.2710    2.1040   -1.9630 c3        1 MOL      0.036146
    145 C46         6.6210    3.5130   -2.3160 c3        1 MOL     -0.017134
    146 C47         5.6040    4.0100   -3.3490 c3        1 MOL      0.025487
    147 C48         6.0370    5.4670   -3.4930 c3        1 MOL      0.040783
    148 N13         5.4180    6.1400   -4.6120 n4        1 MOL     -0.271838
    149 H67         6.4000   -0.2860   -1.5350 hn        1 MOL      0.190300
    150 H68         7.9360    2.0100   -0.6380 h1        1 MOL      0.100724
    151 H69         5.1810    1.9940   -1.9240 hc        1 MOL     -0.010557
    152 H70         6.5900    1.4470   -2.7710 hc        1 MOL     -0.010557
    153 H71         7.6390    3.5850   -2.7040 hc        1 MOL      0.024244
    154 H72         6.5870    4.0930   -1.3930 hc        1 MOL      0.024244
    155 H73         4.6130    3.8420   -2.9370 hc        1 MOL      0.022804
    156 H74         5.6550    3.5640   -4.3460 hc        1 MOL      0.022804
    157 H75         7.1130    5.5980   -3.5600 hx        1 MOL      0.074748
    158 H76         5.7380    5.9400   -2.5480 hx        1 MOL      0.074748
    159 H77         5.8840    5.9440   -5.4950 hn        1 MOL      0.287969
    160 H78         4.4480    5.8930   -4.7370 hn        1 MOL      0.287969
    161 H79         5.4420    7.1490   -4.5340 hn        1 MOL      0.287969
    162 N14         4.9360    1.3250    0.6600 n         1 MOL     -0.021316
    163 C49         4.0830    1.3580    1.8650 c3        1 MOL     -0.361269
    164 C50         4.7560    0.6710    3.0650 c         1 MOL      0.574586
    165 O22         4.4930    1.0810    4.1990 o         1 MOL     -0.570559
    166 C51         2.6730    0.8620    1.5240 c3        1 MOL      0.271587
    167 C52         1.8830    1.6670    0.5300 c3        1 MOL     -0.155343
    168 C53         0.6870    0.8560   -0.0240 c         1 MOL      0.574320
    169 O23         0.9420   -0.2860   -0.4890 o         1 MOL     -0.598462
    170 O24        -0.4680    1.2790    0.1710 o         1 MOL     -0.598462
    171 H80         4.5940    0.7930   -0.1310 hn        1 MOL      0.152266
    172 H81         3.9730    2.4110    2.1200 h1        1 MOL      0.128753
    173 H82         2.1350    0.8150    2.4760 hc        1 MOL      0.038506
    174 H83         2.7610   -0.1710    1.1900 hc        1 MOL      0.038506
    175 H84         2.5300    1.9330   -0.3050 hc        1 MOL      0.002989
    176 H85         1.4500    2.5420    1.0050 hc        1 MOL      0.002989
    177 N15         5.6450   -0.3190    2.9710 n         1 MOL     -0.037669
    178 C54         6.4560   -0.7580    4.0650 c3        1 MOL     -0.353523
    179 H86         7.4670   -0.3690    3.9460 h1        1 MOL      0.117972
    180 H87         6.0350   -0.3910    5.0010 h1        1 MOL      0.117972
    181 H88         6.4860   -1.8480    4.0810 h1        1 MOL      0.117972
    182 H89         5.6170   -0.9220    2.1560 hn        1 MOL      0.083923
    183 Ca1        -1.7550   -0.5920   -1.1390 Ca        1 MOL      1.647176
    184 O25        -0.4080    0.9800   -3.1260 oh        1 MOL     -0.872632
    185 H90         0.2210    1.6370   -3.4070 ho        1 MOL      0.398799
    186 H91        -1.2480    1.2500   -3.5020 ho        1 MOL      0.398799
    187 O26        -0.5110   -2.1580   -2.7000 oh        1 MOL     -0.872632
    188 H92         0.2030   -1.6900   -3.1240 ho        1 MOL      0.398799
    189 H93        -0.9850   -2.5780   -3.4200 ho        1 MOL      0.398799
@<TRIPOS>BOND
     1    1    2 1   
     2    1    4 1   
     3    1    5 1   
     4    1    6 1   
     5    2    3 2   
     6    2    7 1   
     7    7    8 1   
     8    7   15 1   
     9    8    9 1   
    10    8   11 1   
    11    8   16 1   
    12    9   10 2   
    13    9   19 1   
    14   11   12 1   
    15   11   17 1   
    16   11   18 1   
    17   12   13 1   
    18   12   14 1   
    19   19   20 1   
    20   19   28 1   
    21   20   21 1   
    22   20   23 1   
    23   20   29 1   
    24   21   22 2   
    25   21   41 1   
    26   23   24 1   
    27   23   30 1   
    28   23   31 1   
    29   24   25 1   
    30   24   32 1   
    31   24   33 1   
    32   25   26 1   
    33   25   34 1   
    34   25   35 1   
    35   26   27 1   
    36   26   36 1   
    37   26   37 1   
    38   27   38 1   
    39   27   39 1   
    40   27   40 1   
    41   41   42 1   
    42   41   49 1   
    43   42   43 1   
    44   42   45 1   
    45   42   50 1   
    46   43   44 2   
    47   43   53 1   
    48   45   46 1   
    49   45   51 1   
    50   45   52 1   
    51   46   47 1   
    52   46   48 1   
    53   53   54 1   
    54   53   57 1   
    55   54   55 1   
    56   54   58 1   
    57   54   59 1   
    58   55   56 2   
    59   55   60 1   
    60   60   61 1   
    61   60   68 1   
    62   61   62 1   
    63   61   64 1   
    64   61   69 1   
    65   62   63 2   
    66   62   72 1   
    67   64   65 1   
    68   64   70 1   
    69   64   71 1   
    70   65   66 1   
    71   65   67 1   
    72   72   73 1   
    73   72   76 1   
    74   73   74 1   
    75   73   77 1   
    76   73   78 1   
    77   74   75 2   
    78   74   79 1   
    79   79   80 1   
    80   79   86 1   
    81   80   81 1   
    82   80   83 1   
    83   80   87 1   
    84   81   82 2   
    85   81   93 1   
    86   83   84 1   
    87   83   85 1   
    88   83   88 1   
    89   84   90 1   
    90   84   91 1   
    91   84   92 1   
    92   85   89 1   
    93   93   94 1   
    94   93  101 1   
    95   94   95 1   
    96   94   97 1   
    97   94  102 1   
    98   95   96 2   
    99   95  112 1   
   100   97   98 1   
   101   97   99 1   
   102   97  103 1   
   103   98  100 1   
   104   98  104 1   
   105   98  105 1   
   106   99  106 1   
   107   99  107 1   
   108   99  108 1   
   109  100  109 1   
   110  100  110 1   
   111  100  111 1   
   112  112  113 1   
   113  112  119 1   
   114  113  114 1   
   115  113  116 1   
   116  113  120 1   
   117  114  115 2   
   118  114  126 1   
   119  116  117 1   
   120  116  118 1   
   121  116  121 1   
   122  117  123 1   
   123  117  124 1   
   124  117  125 1   
   125  118  122 1   
   126  126  127 1   
   127  126  133 1   
   128  127  128 1   
   129  127  130 1   
   130  127  134 1   
   131  128  129 2   
   132  128  140 1   
   133  130  131 1   
   134  130  132 1   
   135  130  135 1   
   136  131  137 1   
   137  131  138 1   
   138  131  139 1   
   139  132  136 1   
   140  140  141 1   
   141  140  149 1   
   142  141  142 1   
   143  141  144 1   
   144  141  150 1   
   145  142  143 2   
   146  142  162 1   
   147  144  145 1   
   148  144  151 1   
   149  144  152 1   
   150  145  146 1   
   151  145  153 1   
   152  145  154 1   
   153  146  147 1   
   154  146  155 1   
   155  146  156 1   
   156  147  148 1   
   157  147  157 1   
   158  147  158 1   
   159  148  159 1   
   160  148  160 1   
   161  148  161 1   
   162  162  163 1   
   163  162  171 1   
   164  163  164 1   
   165  163  166 1   
   166  163  172 1   
   167  164  165 2   
   168  164  177 1   
   169  166  167 1   
   170  166  173 1   
   171  166  174 1   
   172  167  168 1   
   173  167  175 1   
   174  167  176 1   
   175  168  169 1   
   176  168  170 1   
   177  177  178 1   
   178  177  182 1   
   179  178  179 1   
   180  178  180 1   
   181  178  181 1   
   182  184  185 1   
   183  184  186 1   
   184  187  188 1   
   185  187  189 1   
@<TRIPOS>SUBSTRUCTURE
     1 MOL         1 TEMP              0 ****  ****    0 ROOT
