@<TRIPOS>MOLECULE
MOL
  175   173     1     0     0
SMALL
resp


@<TRIPOS>ATOM
      1 C1          0.4700    4.3380    5.5770 c3        1 MOL     -0.371840
      2 C2         -0.1000    4.2030    4.1010 c         1 MOL      0.677294
      3 O1          0.5780    4.2590    3.0270 o         1 MOL     -0.553456
      4 H1          1.5590    4.3740    5.5430 hc        1 MOL      0.091716
      5 H2          0.0910    5.2530    6.0320 hc        1 MOL      0.091716
      6 H3          0.1540    3.4790    6.1690 hc        1 MOL      0.091716
      7 N1         -1.3880    3.8780    4.0540 n         1 MOL     -0.583734
      8 C3         -2.1180    3.5030    2.8940 c3        1 MOL      0.048874
      9 C4         -2.4390    4.6960    1.9430 c         1 MOL      0.693777
     10 O2         -2.7250    5.8170    2.4300 o         1 MOL     -0.593809
     11 C5         -3.4470    2.6530    3.1500 c3        1 MOL     -0.323826
     12 C6         -4.0870    2.2100    1.8820 c         1 MOL      0.822133
     13 O3         -5.2500    1.8250    1.9860 o         1 MOL     -0.714693
     14 O4         -3.5040    2.0420    0.8130 o         1 MOL     -0.714693
     15 H4         -1.9340    3.8670    4.9130 hn        1 MOL      0.322062
     16 H5         -1.5830    2.7210    2.3500 h1        1 MOL      0.143503
     17 H6         -4.1670    3.3010    3.6450 hc        1 MOL      0.070076
     18 H7         -3.3590    1.8130    3.8300 hc        1 MOL      0.070076
     19 N2         -2.3070    4.4200    0.5850 n         1 MOL     -0.741953
     20 C7         -2.3950    5.4320   -0.5430 c3        1 MOL      0.333276
     21 C8         -3.4030    5.0730   -1.6480 c         1 MOL      0.566724
     22 O5         -3.4340    5.7930   -2.6350 o         1 MOL     -0.591560
     23 C9         -0.9290    5.4360   -1.0530 c3        1 MOL     -0.176671
     24 H8         -1.9960    3.5240    0.2410 hn        1 MOL      0.447492
     25 H9         -2.6490    6.4590   -0.3110 h1        1 MOL     -0.007680
     26 H10        -0.6330    4.4310   -1.3620 hc        1 MOL      0.042310
     27 H11        -0.8210    6.0170   -1.9710 hc        1 MOL      0.042310
     28 H12        -0.2700    6.0110   -0.3960 hc        1 MOL      0.042310
     29 N3         -4.1920    3.9840   -1.5120 n         1 MOL     -0.656109
     30 C10        -4.9630    3.4480   -2.6870 c3        1 MOL      0.329331
     31 C11        -6.2450    2.6920   -2.1430 c         1 MOL      0.308248
     32 O6         -7.1290    2.4120   -2.9110 o         1 MOL     -0.510914
     33 C12        -4.1220    2.6360   -3.6310 c3        1 MOL     -0.238879
     34 C13        -3.3650    1.4960   -2.9840 c         1 MOL      0.826492
     35 O7         -2.2280    1.0860   -3.4210 o         1 MOL     -0.755639
     36 O8         -3.7950    0.9780   -1.9000 o         1 MOL     -0.755639
     37 H13        -4.1480    3.5290   -0.6120 hn        1 MOL      0.282170
     38 H14        -5.3900    4.2290   -3.3190 h1        1 MOL      0.032570
     39 H15        -3.4170    3.3180   -4.0920 hc        1 MOL      0.049358
     40 H16        -4.7530    2.2380   -4.4270 hc        1 MOL      0.049358
     41 N4         -6.3470    2.2890   -0.8340 n         1 MOL     -0.136565
     42 C14        -7.4020    1.4720   -0.3510 c3        1 MOL     -0.592921
     43 C15        -7.4530   -0.0120   -0.8970 c         1 MOL      0.601566
     44 O9         -8.5220   -0.6450   -0.8480 o         1 MOL     -0.604863
     45 H17        -5.5930    2.3990   -0.1700 hn        1 MOL      0.211215
     46 H18        -8.2950    1.9210   -0.7880 h1        1 MOL      0.221305
     47 H19        -7.2120    1.4620    0.7290 h1        1 MOL      0.221305
     48 N5         -6.3480   -0.5440   -1.4940 n         1 MOL     -0.280391
     49 C16        -6.2980   -1.9000   -2.1310 c3        1 MOL     -0.107191
     50 C17        -6.3360   -3.1210   -1.2260 c         1 MOL      0.638700
     51 O10        -6.5130   -4.1930   -1.6920 o         1 MOL     -0.592295
     52 C18        -5.1070   -2.0320   -3.0850 c3        1 MOL      0.061456
     53 C19        -3.7330   -2.2260   -2.3930 c         1 MOL      0.324901
     54 N6         -2.7040   -2.3720   -3.2160 n         1 MOL     -0.628777
     55 O11        -3.6490   -2.1590   -1.1810 o         1 MOL     -0.219843
     56 H20        -5.5520    0.0830   -1.5600 hn        1 MOL      0.300323
     57 H21        -7.2550   -2.0280   -2.6340 h1        1 MOL      0.094407
     58 H22        -5.0320   -1.0510   -3.5540 hc        1 MOL     -0.010728
     59 H23        -5.4210   -2.7830   -3.8100 hc        1 MOL     -0.010728
     60 H24        -2.8720   -2.3360   -4.2020 hn        1 MOL      0.347567
     61 H25        -1.7770   -2.3810   -2.8040 hn        1 MOL      0.347567
     62 N7         -6.3790   -2.8850    0.0120 n         1 MOL     -0.372675
     63 C20        -6.3610   -3.9150    1.1450 c3        1 MOL     -0.051380
     64 C21        -4.9940   -4.4000    1.7020 c         1 MOL      0.397794
     65 O12        -4.9090   -5.2820    2.5690 o         1 MOL     -0.569597
     66 H26        -6.1430   -1.9470    0.3040 hn        1 MOL      0.233860
     67 H27        -6.8010   -4.8040    0.6980 h1        1 MOL      0.090152
     68 H28        -6.9950   -3.6030    1.9680 h1        1 MOL      0.090152
     69 N8         -3.8890   -3.8780    1.2220 n         1 MOL      0.077691
     70 C22        -2.5350   -4.4560    1.4170 c3        1 MOL     -0.413006
     71 C23        -1.4230   -3.4610    1.4860 c         1 MOL      0.764509
     72 O13        -1.5220   -2.3570    0.9730 o         1 MOL     -0.560493
     73 C24        -2.2520   -5.4270    0.2620 c3        1 MOL      0.579779
     74 C25        -3.2130   -6.6510    0.2730 c3        1 MOL     -0.580290
     75 O14        -2.4070   -4.7580   -0.9790 oh        1 MOL     -0.570950
     76 H29        -3.9960   -3.0410    0.6670 hn        1 MOL     -0.134744
     77 H30        -2.6410   -5.0540    2.3180 h1        1 MOL      0.135928
     78 H31        -1.2110   -5.7590    0.2960 h1        1 MOL     -0.037880
     79 H32        -2.2480   -3.8280   -0.8600 ho        1 MOL      0.269139
     80 H33        -4.2640   -6.3890    0.1930 hc        1 MOL      0.149414
     81 H34        -2.9350   -7.2750   -0.5690 hc        1 MOL      0.149414
     82 H35        -3.1040   -7.2010    1.2050 hc        1 MOL      0.149414
     83 N9         -0.2920   -3.8130    2.0760 n         1 MOL     -0.746284
     84 C26         0.9050   -2.9340    2.0520 c3        1 MOL     -0.006025
     85 C27         1.6320   -3.1630    0.7610 c         1 MOL      0.757385
     86 O15         2.1240   -4.2830    0.4780 o         1 MOL     -0.629481
     87 C28         1.8890   -2.9070    3.2830 c3        1 MOL      0.179844
     88 C29         1.2110   -3.1660    4.6360 c3        1 MOL      0.304079
     89 C30         2.6560   -1.5910    3.2380 c3        1 MOL     -0.233069
     90 C31         2.1450   -3.6510    5.6970 c3        1 MOL     -0.266566
     91 H36        -0.2100   -4.7890    2.3160 hn        1 MOL      0.351995
     92 H37         0.6410   -1.8770    2.0190 h1        1 MOL      0.109068
     93 H38         2.6410   -3.6920    3.1330 hc        1 MOL     -0.040998
     94 H39         0.5410   -4.0230    4.5900 hc        1 MOL     -0.065032
     95 H40         0.6140   -2.2840    4.8760 hc        1 MOL     -0.065032
     96 H41         3.3520   -1.3340    4.0370 hc        1 MOL      0.026978
     97 H42         3.2750   -1.5700    2.3310 hc        1 MOL      0.026978
     98 H43         2.0230   -0.7020    3.2460 hc        1 MOL      0.026978
     99 H44         1.5510   -3.7180    6.6090 hc        1 MOL      0.045693
    100 H45         2.5570   -4.6220    5.4440 hc        1 MOL      0.045693
    101 H46         2.8560   -2.8770    5.9890 hc        1 MOL      0.045693
    102 N10         1.8740   -2.0520    0.0210 n         1 MOL     -0.381044
    103 C32         2.6850   -1.9140   -1.1810 c3        1 MOL      0.073080
    104 C33         4.1280   -1.4410   -0.9320 c         1 MOL      0.369199
    105 O16         4.3490   -0.7230    0.0240 o         1 MOL     -0.249355
    106 C34         1.8940   -0.9770   -2.1120 c3        1 MOL     -0.299377
    107 C35         0.5220   -1.5430   -2.4680 c         1 MOL      0.786722
    108 O17         0.4460   -2.3830   -3.3490 o         1 MOL     -0.678825
    109 O18        -0.4530   -1.1950   -1.7320 o         1 MOL     -0.678825
    110 H47         1.4460   -1.2160    0.3850 hn        1 MOL      0.062336
    111 H48         2.8230   -2.8810   -1.6690 h1        1 MOL      0.078044
    112 H49         2.5240   -0.7700   -2.9750 hc        1 MOL      0.074587
    113 H50         1.8450    0.0080   -1.6490 hc        1 MOL      0.074587
    114 N11         5.1180   -1.8530   -1.7010 n         1 MOL     -0.599948
    115 C36         6.5120   -1.5140   -1.3400 c3        1 MOL      0.367613
    116 C37         6.7980    0.0200   -1.1450 c         1 MOL      0.154538
    117 O19         7.6240    0.3130   -0.2780 o         1 MOL     -0.441031
    118 C38         7.5690   -2.0650   -2.3700 c3        1 MOL     -0.251644
    119 C39         8.9670   -1.7920   -1.9580 ca        1 MOL      0.024202
    120 C40         9.5840   -0.6690   -2.5610 ca        1 MOL     -0.081285
    121 C41         9.6080   -2.6430   -1.0300 ca        1 MOL     -0.081285
    122 C42        10.8620   -0.3940   -2.1720 ca        1 MOL     -0.209213
    123 C43        10.8540   -2.3020   -0.5650 ca        1 MOL     -0.209213
    124 C44        11.4520   -1.1320   -1.1200 ca        1 MOL     -0.006868
    125 H51         4.9040   -2.3170   -2.5780 hn        1 MOL      0.320692
    126 H52         6.7420   -2.0050   -0.3970 h1        1 MOL      0.048159
    127 H53         7.3710   -1.5730   -3.3230 hc        1 MOL      0.077607
    128 H54         7.4060   -3.1290   -2.5560 hc        1 MOL      0.077607
    129 H55         9.0880   -0.0890   -3.3170 ha        1 MOL      0.110173
    130 H56         9.0490   -3.4830   -0.6450 ha        1 MOL      0.110173
    131 H57        11.3870    0.4690   -2.5500 ha        1 MOL      0.134221
    132 H58        11.3620   -2.7860    0.2570 ha        1 MOL      0.134221
    133 H59        12.4240   -0.8300   -0.7680 ha        1 MOL      0.070039
    134 N12         6.2580    0.9080   -1.9740 n         1 MOL      0.098965
    135 C45         6.3290    2.3670   -1.7340 c3        1 MOL      0.031411
    136 C46         5.6940    2.8990   -0.4410 c         1 MOL      0.222307
    137 O20         6.0930    3.9010    0.1190 o         1 MOL     -0.466211
    138 C47         5.6400    2.9450   -3.0230 c3        1 MOL     -0.021487
    139 C48         5.7890    1.9030   -4.1740 c3        1 MOL     -0.139670
    140 C49         5.6160    0.5940   -3.3130 c3        1 MOL     -0.162855
    141 H60         7.4070    2.5610   -1.6830 h1        1 MOL      0.058415
    142 H61         4.5870    3.1440   -2.8290 hc        1 MOL      0.039621
    143 H62         6.1730    3.8390   -3.3370 hc        1 MOL      0.039621
    144 H63         4.9180    1.9050   -4.8210 hc        1 MOL      0.066106
    145 H64         6.7200    1.9590   -4.7470 hc        1 MOL      0.066106
    146 H65         4.5530    0.5800   -3.0870 h1        1 MOL      0.089330
    147 H66         6.0610   -0.2790   -3.7840 h1        1 MOL      0.089330
    148 N13         4.7530    2.1270    0.1340 n         1 MOL     -0.059155
    149 C50         4.2290    2.3040    1.4930 c3        1 MOL     -0.047751
    150 C51         4.9820    1.6850    2.6320 c         1 MOL      0.397672
    151 O21         5.1850    2.3010    3.6680 o         1 MOL     -0.534758
    152 C52         2.7630    1.7760    1.5850 c3        1 MOL     -0.020167
    153 C53         1.7800    2.2310    0.4710 c3        1 MOL     -0.005626
    154 C54         0.4280    1.4680    0.3540 c         1 MOL      0.683638
    155 O22        -0.5650    2.0830   -0.1740 o         1 MOL     -0.749938
    156 O23         0.1680    0.4140    0.8590 o         1 MOL     -0.749938
    157 H67         4.2830    1.4660   -0.4670 hn        1 MOL      0.155307
    158 H68         4.2900    3.3580    1.7600 h1        1 MOL      0.089313
    159 H69         2.4370    2.0160    2.5990 hc        1 MOL      0.045887
    160 H70         2.8150    0.6920    1.4580 hc        1 MOL      0.045887
    161 H71         2.3430    2.0770   -0.4560 hc        1 MOL      0.003632
    162 H72         1.6100    3.2870    0.6820 hc        1 MOL      0.003632
    163 N14         5.6990    0.5620    2.3510 n         1 MOL     -0.032501
    164 C55         6.7650    0.0310    3.2270 c3        1 MOL     -0.134950
    165 H73         7.7380    0.2440    2.7850 h1        1 MOL      0.054970
    166 H74         6.7000    0.5050    4.2060 h1        1 MOL      0.054970
    167 H75         6.6440   -1.0460    3.3370 h1        1 MOL      0.054970
    168 H76         5.5180   -0.0060    1.5330 hn        1 MOL      0.053995
    169 Ca1        -2.1540   -0.0610   -0.2720 Ca        1 MOL      1.669247
    170 O24        -1.6680   -0.1780    2.6410 oh        1 MOL     -0.730044
    171 H77        -1.6110   -0.4080    3.5680 ho        1 MOL      0.364235
    172 H78        -0.7750    0.0720    2.4010 ho        1 MOL      0.364235
    173 O25        -4.5700   -0.6310    1.1710 oh        1 MOL     -0.730044
    174 H79        -4.7780   -1.3270    1.7920 ho        1 MOL      0.364235
    175 H80        -4.7360    0.1770    1.6550 ho        1 MOL      0.364235
@<TRIPOS>BOND
     1    1    2 1   
     2    1    4 1   
     3    1    5 1   
     4    1    6 1   
     5    2    3 2   
     6    2    7 1   
     7    7    8 1   
     8    7   15 1   
     9    8    9 1   
    10    8   11 1   
    11    8   16 1   
    12    9   10 2   
    13    9   19 1   
    14   11   12 1   
    15   11   17 1   
    16   11   18 1   
    17   12   13 1   
    18   12   14 1   
    19   19   20 1   
    20   19   24 1   
    21   20   21 1   
    22   20   23 1   
    23   20   25 1   
    24   21   22 2   
    25   21   29 1   
    26   23   26 1   
    27   23   27 1   
    28   23   28 1   
    29   29   30 1   
    30   29   37 1   
    31   30   31 1   
    32   30   33 1   
    33   30   38 1   
    34   31   32 2   
    35   31   41 1   
    36   33   34 1   
    37   33   39 1   
    38   33   40 1   
    39   34   35 1   
    40   34   36 1   
    41   41   42 1   
    42   41   45 1   
    43   42   43 1   
    44   42   46 1   
    45   42   47 1   
    46   43   44 2   
    47   43   48 1   
    48   48   49 1   
    49   48   56 1   
    50   49   50 1   
    51   49   52 1   
    52   49   57 1   
    53   50   51 2   
    54   50   62 1   
    55   52   53 1   
    56   52   58 1   
    57   52   59 1   
    58   53   54 1   
    59   53   55 2   
    60   54   60 1   
    61   54   61 1   
    62   62   63 1   
    63   62   66 1   
    64   63   64 1   
    65   63   67 1   
    66   63   68 1   
    67   64   65 2   
    68   64   69 1   
    69   69   70 1   
    70   69   76 1   
    71   70   71 1   
    72   70   73 1   
    73   70   77 1   
    74   71   72 2   
    75   71   83 1   
    76   73   74 1   
    77   73   75 1   
    78   73   78 1   
    79   74   80 1   
    80   74   81 1   
    81   74   82 1   
    82   75   79 1   
    83   83   84 1   
    84   83   91 1   
    85   84   85 1   
    86   84   87 1   
    87   84   92 1   
    88   85   86 2   
    89   85  102 1   
    90   87   88 1   
    91   87   89 1   
    92   87   93 1   
    93   88   90 1   
    94   88   94 1   
    95   88   95 1   
    96   89   96 1   
    97   89   97 1   
    98   89   98 1   
    99   90   99 1   
   100   90  100 1   
   101   90  101 1   
   102  102  103 1   
   103  102  110 1   
   104  103  104 1   
   105  103  106 1   
   106  103  111 1   
   107  104  105 2   
   108  104  114 1   
   109  106  107 1   
   110  106  112 1   
   111  106  113 1   
   112  107  108 1   
   113  107  109 1   
   114  114  115 1   
   115  114  125 1   
   116  115  116 1   
   117  115  118 1   
   118  115  126 1   
   119  116  117 2   
   120  116  134 1   
   121  118  119 1   
   122  118  127 1   
   123  118  128 1   
   124  119  120 ar  
   125  119  121 ar  
   126  120  122 ar  
   127  120  129 1   
   128  121  123 ar  
   129  121  130 1   
   130  122  124 ar  
   131  122  131 1   
   132  123  124 ar  
   133  123  132 1   
   134  124  133 1   
   135  134  135 1   
   136  134  140 1   
   137  135  136 1   
   138  135  138 1   
   139  135  141 1   
   140  136  137 2   
   141  136  148 1   
   142  138  139 1   
   143  138  142 1   
   144  138  143 1   
   145  139  140 1   
   146  139  144 1   
   147  139  145 1   
   148  140  146 1   
   149  140  147 1   
   150  148  149 1   
   151  148  157 1   
   152  149  150 1   
   153  149  152 1   
   154  149  158 1   
   155  150  151 2   
   156  150  163 1   
   157  152  153 1   
   158  152  159 1   
   159  152  160 1   
   160  153  154 1   
   161  153  161 1   
   162  153  162 1   
   163  154  155 1   
   164  154  156 1   
   165  163  164 1   
   166  163  168 1   
   167  164  165 1   
   168  164  166 1   
   169  164  167 1   
   170  170  171 1   
   171  170  172 1   
   172  173  174 1   
   173  173  175 1   
@<TRIPOS>SUBSTRUCTURE
     1 MOL         1 TEMP              0 ****  ****    0 ROOT
