@<TRIPOS>MOLECULE
MOL
  189   185     1     0     0
SMALL
resp


@<TRIPOS>ATOM
      1 C1         -0.2580    3.1740    5.1180 c3        1 MOL     -0.370588
      2 C2         -0.7130    2.7160    3.7220 c         1 MOL      0.571571
      3 O1          0.0790    2.8530    2.7660 o         1 MOL     -0.578138
      4 H1          0.6320    3.7950    5.0240 hc        1 MOL      0.097985
      5 H2         -1.0540    3.7510    5.5880 hc        1 MOL      0.097985
      6 H3         -0.0300    2.3030    5.7310 hc        1 MOL      0.097985
      7 N1         -1.8540    2.0060    3.5310 n         1 MOL     -0.363413
      8 C3         -2.3810    1.6870    2.2120 c3        1 MOL      0.111851
      9 C4         -2.7920    2.9140    1.4850 c         1 MOL      0.168793
     10 O2         -3.8480    3.5460    1.8380 o         1 MOL     -0.474038
     11 C5         -3.5170    0.7960    2.5900 c3        1 MOL     -0.180006
     12 C6         -4.1100    0.1860    1.3130 c         1 MOL      0.990576
     13 O3         -3.5800    0.2620    0.1840 o         1 MOL     -0.798199
     14 O4         -5.2420   -0.2700    1.4140 o         1 MOL     -0.798199
     15 H4         -2.4890    1.9720    4.3040 hn        1 MOL      0.268814
     16 H5         -1.6780    1.0600    1.6640 h1        1 MOL     -0.001497
     17 H6         -4.3450    1.2700    3.1370 hc        1 MOL      0.043986
     18 H7         -3.1270    0.0280    3.2520 hc        1 MOL      0.043986
     19 N2         -1.9100    3.3750    0.5580 n         1 MOL     -0.064954
     20 C7         -2.0810    4.7020   -0.0360 c3        1 MOL     -0.159549
     21 C8         -3.3050    4.6790   -1.0460 c         1 MOL      0.375131
     22 O5         -3.8720    5.7580   -1.2770 o         1 MOL     -0.563898
     23 C9         -0.8500    5.2420   -0.7620 c3        1 MOL     -0.278459
     24 C10         0.1700    5.9360    0.1540 c3        1 MOL      0.034492
     25 C11        -0.3190    7.3230    0.6650 c3        1 MOL     -0.159957
     26 C12         0.4280    8.0090    1.7790 c3        1 MOL     -0.071648
     27 N3          0.1810    7.2490    3.0310 n4        1 MOL     -0.265323
     28 H8         -1.0670    2.8890    0.2570 hn        1 MOL      0.340353
     29 H9         -2.3320    5.4030    0.7580 h1        1 MOL      0.116114
     30 H10        -1.1610    6.0480   -1.4310 hc        1 MOL      0.133487
     31 H11        -0.3200    4.4810   -1.3390 hc        1 MOL      0.133487
     32 H12         1.0710    6.1260   -0.4460 hc        1 MOL      0.039149
     33 H13         0.4000    5.2750    0.9980 hc        1 MOL      0.039149
     34 H14        -1.3240    7.2830    1.0680 hc        1 MOL      0.101972
     35 H15        -0.2250    8.0680   -0.1340 hc        1 MOL      0.101972
     36 H16         0.0800    9.0340    1.9570 hx        1 MOL      0.115106
     37 H17         1.4920    8.0090    1.5790 hx        1 MOL      0.115106
     38 H18        -0.7910    7.0960    3.2810 hn        1 MOL      0.300440
     39 H19         0.6100    6.3410    2.9700 hn        1 MOL      0.300440
     40 H20         0.5370    7.7100    3.8590 hn        1 MOL      0.300440
     41 N4         -3.6810    3.5700   -1.6770 n         1 MOL     -0.046195
     42 C13        -4.6710    3.5240   -2.7920 c3        1 MOL     -0.005733
     43 C14        -5.9760    2.8560   -2.3320 c         1 MOL      0.376018
     44 O6         -7.0020    2.6350   -3.0210 o         1 MOL     -0.546951
     45 C15        -4.0430    3.0280   -4.0930 c3        1 MOL     -0.218897
     46 C16        -2.8090    2.0550   -3.9270 c         1 MOL      0.674706
     47 O7         -2.7490    1.2240   -3.0160 o         1 MOL     -0.655180
     48 O8         -1.8470    2.2840   -4.7440 o         1 MOL     -0.655180
     49 H21        -3.0450    2.7880   -1.6070 hn        1 MOL      0.157641
     50 H22        -5.0630    4.5300   -2.9520 h1        1 MOL      0.104896
     51 H23        -3.6770    3.8480   -4.7150 hc        1 MOL      0.064374
     52 H24        -4.8290    2.5170   -4.6550 hc        1 MOL      0.064374
     53 N5         -5.9880    2.3350   -1.1180 n         1 MOL     -0.133260
     54 C17        -7.1190    1.6520   -0.5290 c3        1 MOL     -0.253648
     55 C18        -7.4160    0.2620   -0.9710 c         1 MOL      0.547237
     56 O9         -8.5110   -0.1860   -0.7090 o         1 MOL     -0.582985
     57 H25        -5.1190    2.4080   -0.6170 hn        1 MOL      0.104242
     58 H26        -7.8910    2.4160   -0.5660 h1        1 MOL      0.137230
     59 H27        -6.8890    1.6740    0.5380 h1        1 MOL      0.137230
     60 N6         -6.4410   -0.4380   -1.5640 n         1 MOL     -0.170034
     61 C19        -6.7600   -1.7540   -2.1740 c3        1 MOL      0.023560
     62 C20        -7.0120   -2.8050   -1.0220 c         1 MOL      0.391266
     63 O10        -7.5480   -3.8650   -1.3050 o         1 MOL     -0.550820
     64 C21        -5.6940   -2.2250   -3.2110 c3        1 MOL     -0.296498
     65 C22        -4.2770   -2.1310   -2.6910 c         1 MOL      0.853505
     66 O11        -3.3150   -1.7960   -3.4350 o         1 MOL     -0.768118
     67 O12        -3.8930   -2.3980   -1.5650 o         1 MOL     -0.768118
     68 H28        -5.4910   -0.0980   -1.5910 hn        1 MOL      0.130089
     69 H29        -7.7380   -1.6250   -2.6520 h1        1 MOL      0.088729
     70 H30        -5.7120   -1.5530   -4.0700 hc        1 MOL      0.092317
     71 H31        -5.8680   -3.2670   -3.4780 hc        1 MOL      0.092317
     72 N7         -6.5510   -2.4950    0.1840 n         1 MOL     -0.041028
     73 C23        -6.6570   -3.2870    1.3740 c3        1 MOL     -0.240024
     74 C24        -5.4100   -4.1450    1.5330 c         1 MOL      0.602796
     75 O13        -5.4800   -5.1720    2.1800 o         1 MOL     -0.585921
     76 H32        -6.1260   -1.5810    0.3000 hn        1 MOL      0.252441
     77 H33        -7.5060   -3.9650    1.3470 h1        1 MOL      0.096547
     78 H34        -6.6940   -2.6220    2.2410 h1        1 MOL      0.096547
     79 N8         -4.2620   -3.6880    1.0970 n         1 MOL     -0.179545
     80 C25        -2.9860   -4.3130    1.4010 c3        1 MOL     -0.169691
     81 C26        -1.9010   -3.2770    1.3310 c         1 MOL      0.613698
     82 O14        -1.9460   -2.2590    0.6250 o         1 MOL     -0.692352
     83 C27        -2.6500   -5.4670    0.4540 c3        1 MOL      0.535054
     84 C28        -3.5320   -6.6980    0.5970 c3        1 MOL     -0.471459
     85 O15        -2.7740   -4.9950   -0.8760 oh        1 MOL     -0.675408
     86 H35        -4.2430   -2.9380    0.4190 hn        1 MOL      0.025346
     87 H36        -3.0910   -4.6460    2.4360 h1        1 MOL      0.087009
     88 H37        -1.6270   -5.7320    0.7300 h1        1 MOL     -0.070437
     89 H38        -3.1900   -4.1360   -0.7700 ho        1 MOL      0.463482
     90 H39        -3.2450   -7.4830   -0.1040 hc        1 MOL      0.126079
     91 H40        -3.5240   -7.0030    1.6420 hc        1 MOL      0.126079
     92 H41        -4.4930   -6.3380    0.2570 hc        1 MOL      0.126079
     93 N9         -0.8840   -3.4600    2.1490 n         1 MOL     -0.501385
     94 C29         0.2670   -2.5300    2.3000 c3        1 MOL     -0.038285
     95 C30         1.4750   -3.1160    1.6770 c         1 MOL      0.497971
     96 O16         1.9070   -4.2120    2.1240 o         1 MOL     -0.566987
     97 C31         0.5060   -2.1090    3.7320 c3        1 MOL      0.219758
     98 C32        -0.7100   -1.4830    4.4620 c3        1 MOL      0.142741
     99 C33         1.7570   -1.1350    3.8820 c3        1 MOL     -0.383431
    100 C34        -0.5450   -1.4360    5.9730 c3        1 MOL     -0.234254
    101 H42        -0.8680   -4.2390    2.7850 hn        1 MOL      0.282291
    102 H43         0.0200   -1.5910    1.8110 h1        1 MOL      0.161898
    103 H44         0.6920   -2.9950    4.3240 hc        1 MOL     -0.020316
    104 H45        -1.6350   -1.9890    4.1940 hc        1 MOL     -0.020719
    105 H46        -0.8260   -0.4500    4.1300 hc        1 MOL     -0.020719
    106 H47         2.6280   -1.7930    3.8430 hc        1 MOL      0.086057
    107 H48         1.8720   -0.4080    3.0840 hc        1 MOL      0.086057
    108 H49         1.7670   -0.6620    4.8640 hc        1 MOL      0.086057
    109 H50        -0.3350   -2.4650    6.2740 hc        1 MOL      0.049760
    110 H51         0.2770   -0.8670    6.3930 hc        1 MOL      0.049760
    111 H52        -1.5400   -1.1230    6.2860 hc        1 MOL      0.049760
    112 N10         2.1230   -2.3580    0.7910 n         1 MOL     -0.091984
    113 C35         3.4280   -2.8170    0.3110 c3        1 MOL     -0.087521
    114 C36         4.7020   -2.2750    0.9540 c         1 MOL      0.276539
    115 O17         4.7280   -1.2490    1.7380 o         1 MOL     -0.324207
    116 C37         3.4540   -2.4790   -1.2540 c3        1 MOL      0.450697
    117 C38         2.3020   -3.1130   -2.0120 c3        1 MOL     -0.598008
    118 O18         3.3640   -1.0770   -1.3340 oh        1 MOL     -0.557924
    119 H53         1.7450   -1.4670    0.4830 hn        1 MOL      0.132607
    120 H54         3.4940   -3.9010    0.4130 h1        1 MOL      0.081236
    121 H55         4.3720   -2.7090   -1.7900 h1        1 MOL     -0.001973
    122 H56         2.5070   -0.8090   -1.0150 ho        1 MOL      0.392019
    123 H57         2.8610   -3.3570   -2.9180 hc        1 MOL      0.140390
    124 H58         1.9640   -3.9550   -1.4100 hc        1 MOL      0.140390
    125 H59         1.5190   -2.3600   -2.1920 hc        1 MOL      0.140390
    126 N11         5.8160   -3.0070    0.7380 n         1 MOL     -0.282804
    127 C39         7.2070   -2.4510    0.9040 c3        1 MOL      0.013452
    128 C40         7.4310   -0.9920    0.4530 c         1 MOL      0.200505
    129 O19         7.9430   -0.1990    1.2400 o         1 MOL     -0.465027
    130 C41         8.2820   -3.1870    0.1100 c3        1 MOL      0.190268
    131 C42         8.3720   -4.7080    0.6110 c3        1 MOL     -0.567373
    132 O20         7.8070   -3.3760   -1.2170 oh        1 MOL     -0.698617
    133 H60         5.7200   -3.9470    0.3910 hn        1 MOL      0.264310
    134 H61         7.5080   -2.5010    1.9470 h1        1 MOL      0.123844
    135 H62         9.2780   -2.7600    0.0350 h1        1 MOL      0.100275
    136 H63         8.4890   -3.8580   -1.6890 ho        1 MOL      0.449255
    137 H64         7.3800   -5.1570    0.6060 hc        1 MOL      0.167933
    138 H65         9.1410   -5.0730   -0.0760 hc        1 MOL      0.167933
    139 H66         8.6650   -4.7550    1.6660 hc        1 MOL      0.167933
    140 N12         7.0090   -0.5750   -0.7550 n         1 MOL     -0.081151
    141 C43         7.0950    0.7810   -1.2520 c3        1 MOL     -0.040741
    142 C44         6.1580    1.8600   -0.4870 c         1 MOL      0.360095
    143 O21         6.5680    3.0230   -0.3720 o         1 MOL     -0.490896
    144 C45         6.8360    0.7980   -2.7530 c3        1 MOL     -0.289792
    145 C46         7.6700   -0.1340   -3.6170 c3        1 MOL      0.109339
    146 C47         9.0140    0.4860   -3.8250 c3        1 MOL     -0.328673
    147 C48         9.7010    0.0420   -5.0790 c3        1 MOL      0.087234
    148 N13        11.0070    0.7630   -5.2470 n4        1 MOL     -0.262656
    149 H67         6.5860   -1.3020   -1.3150 hn        1 MOL      0.274879
    150 H68         8.0920    1.1900   -1.0970 h1        1 MOL      0.097447
    151 H69         7.0610    1.8100   -3.0860 hc        1 MOL      0.112442
    152 H70         5.8100    0.4840   -2.9640 hc        1 MOL      0.112442
    153 H71         7.1100   -0.3130   -4.5450 hc        1 MOL      0.022079
    154 H72         7.8340   -1.1230   -3.1920 hc        1 MOL      0.022079
    155 H73         9.6570    0.4400   -2.9510 hc        1 MOL      0.120611
    156 H74         8.8960    1.5610   -3.9350 hc        1 MOL      0.120611
    157 H75         9.1670    0.0260   -6.0320 hx        1 MOL      0.075713
    158 H76         9.7760   -1.0410   -4.9790 hx        1 MOL      0.075713
    159 H77        10.9430    1.6240   -5.7600 hn        1 MOL      0.266273
    160 H78        11.4280    0.9390   -4.3420 hn        1 MOL      0.266273
    161 H79        11.6500    0.0940   -5.6620 hn        1 MOL      0.266273
    162 N14         4.9890    1.3980    0.0830 n         1 MOL      0.041600
    163 C49         4.0510    2.1690    0.9450 c3        1 MOL     -0.010223
    164 C50         4.5670    2.3700    2.3660 c         1 MOL      0.381582
    165 O22         4.5660    3.5510    2.7550 o         1 MOL     -0.538266
    166 C51         2.7090    1.4170    0.9480 c3        1 MOL     -0.103773
    167 C52         1.9310    1.8540   -0.3310 c3        1 MOL     -0.093597
    168 C53         0.6900    0.9450   -0.5140 c         1 MOL      0.949047
    169 O23        -0.4260    1.3730   -0.8430 o         1 MOL     -0.843302
    170 O24         0.8470   -0.2950   -0.4130 o         1 MOL     -0.843302
    171 H80         4.7270    0.4420   -0.1390 hn        1 MOL     -0.091311
    172 H81         4.0190    3.1740    0.5180 h1        1 MOL      0.061316
    173 H82         2.1170    1.6190    1.8300 hc        1 MOL      0.049100
    174 H83         2.8330    0.3370    1.0370 hc        1 MOL      0.049100
    175 H84         2.4880    1.6290   -1.2420 hc        1 MOL     -0.000779
    176 H85         1.6240    2.8980   -0.2850 hc        1 MOL     -0.000779
    177 N15         5.1930    1.4000    3.0210 n         1 MOL     -0.069258
    178 C54         6.0180    1.8160    4.1830 c3        1 MOL     -0.265141
    179 H86         6.8940    2.3590    3.8300 h1        1 MOL      0.104890
    180 H87         5.4290    2.4620    4.8350 h1        1 MOL      0.104890
    181 H88         6.3370    0.9330    4.7380 h1        1 MOL      0.104890
    182 H89         5.0280    0.4370    2.7700 hn        1 MOL      0.146088
    183 Ca1        -1.8310   -0.7990   -1.5570 Ca        1 MOL      1.844617
    184 O25         0.0200   -0.6520   -3.5490 oh        1 MOL     -0.854645
    185 H90         0.9390   -0.4020   -3.5520 ho        1 MOL      0.414960
    186 H91        -0.2650   -0.5300   -4.4580 ho        1 MOL      0.414960
    187 O26        -1.0160   -3.2410   -1.9430 oh        1 MOL     -0.854645
    188 H92        -0.3870   -3.6180   -2.5750 ho        1 MOL      0.414960
    189 H93        -1.5060   -3.9960   -1.6250 ho        1 MOL      0.414960
@<TRIPOS>BOND
     1    1    2 1   
     2    1    4 1   
     3    1    5 1   
     4    1    6 1   
     5    2    3 2   
     6    2    7 1   
     7    7    8 1   
     8    7   15 1   
     9    8    9 1   
    10    8   11 1   
    11    8   16 1   
    12    9   10 2   
    13    9   19 1   
    14   11   12 1   
    15   11   17 1   
    16   11   18 1   
    17   12   13 1   
    18   12   14 1   
    19   19   20 1   
    20   19   28 1   
    21   20   21 1   
    22   20   23 1   
    23   20   29 1   
    24   21   22 2   
    25   21   41 1   
    26   23   24 1   
    27   23   30 1   
    28   23   31 1   
    29   24   25 1   
    30   24   32 1   
    31   24   33 1   
    32   25   26 1   
    33   25   34 1   
    34   25   35 1   
    35   26   27 1   
    36   26   36 1   
    37   26   37 1   
    38   27   38 1   
    39   27   39 1   
    40   27   40 1   
    41   41   42 1   
    42   41   49 1   
    43   42   43 1   
    44   42   45 1   
    45   42   50 1   
    46   43   44 2   
    47   43   53 1   
    48   45   46 1   
    49   45   51 1   
    50   45   52 1   
    51   46   47 1   
    52   46   48 1   
    53   53   54 1   
    54   53   57 1   
    55   54   55 1   
    56   54   58 1   
    57   54   59 1   
    58   55   56 2   
    59   55   60 1   
    60   60   61 1   
    61   60   68 1   
    62   61   62 1   
    63   61   64 1   
    64   61   69 1   
    65   62   63 2   
    66   62   72 1   
    67   64   65 1   
    68   64   70 1   
    69   64   71 1   
    70   65   66 1   
    71   65   67 1   
    72   72   73 1   
    73   72   76 1   
    74   73   74 1   
    75   73   77 1   
    76   73   78 1   
    77   74   75 2   
    78   74   79 1   
    79   79   80 1   
    80   79   86 1   
    81   80   81 1   
    82   80   83 1   
    83   80   87 1   
    84   81   82 2   
    85   81   93 1   
    86   83   84 1   
    87   83   85 1   
    88   83   88 1   
    89   84   90 1   
    90   84   91 1   
    91   84   92 1   
    92   85   89 1   
    93   93   94 1   
    94   93  101 1   
    95   94   95 1   
    96   94   97 1   
    97   94  102 1   
    98   95   96 2   
    99   95  112 1   
   100   97   98 1   
   101   97   99 1   
   102   97  103 1   
   103   98  100 1   
   104   98  104 1   
   105   98  105 1   
   106   99  106 1   
   107   99  107 1   
   108   99  108 1   
   109  100  109 1   
   110  100  110 1   
   111  100  111 1   
   112  112  113 1   
   113  112  119 1   
   114  113  114 1   
   115  113  116 1   
   116  113  120 1   
   117  114  115 2   
   118  114  126 1   
   119  116  117 1   
   120  116  118 1   
   121  116  121 1   
   122  117  123 1   
   123  117  124 1   
   124  117  125 1   
   125  118  122 1   
   126  126  127 1   
   127  126  133 1   
   128  127  128 1   
   129  127  130 1   
   130  127  134 1   
   131  128  129 2   
   132  128  140 1   
   133  130  131 1   
   134  130  132 1   
   135  130  135 1   
   136  131  137 1   
   137  131  138 1   
   138  131  139 1   
   139  132  136 1   
   140  140  141 1   
   141  140  149 1   
   142  141  142 1   
   143  141  144 1   
   144  141  150 1   
   145  142  143 2   
   146  142  162 1   
   147  144  145 1   
   148  144  151 1   
   149  144  152 1   
   150  145  146 1   
   151  145  153 1   
   152  145  154 1   
   153  146  147 1   
   154  146  155 1   
   155  146  156 1   
   156  147  148 1   
   157  147  157 1   
   158  147  158 1   
   159  148  159 1   
   160  148  160 1   
   161  148  161 1   
   162  162  163 1   
   163  162  171 1   
   164  163  164 1   
   165  163  166 1   
   166  163  172 1   
   167  164  165 2   
   168  164  177 1   
   169  166  167 1   
   170  166  173 1   
   171  166  174 1   
   172  167  168 1   
   173  167  175 1   
   174  167  176 1   
   175  168  169 1   
   176  168  170 1   
   177  177  178 1   
   178  177  182 1   
   179  178  179 1   
   180  178  180 1   
   181  178  181 1   
   182  184  185 1   
   183  184  186 1   
   184  187  188 1   
   185  187  189 1   
@<TRIPOS>SUBSTRUCTURE
     1 MOL         1 TEMP              0 ****  ****    0 ROOT
