@<TRIPOS>MOLECULE
MOL
  179   176     1     0     0
SMALL
resp


@<TRIPOS>ATOM
      1 C1          1.4190    3.1620    5.9520 c3        1 MOL     -0.313987
      2 C2          0.9290    2.9630    4.5330 c         1 MOL      0.714107
      3 O1          1.7630    3.1330    3.5730 o         1 MOL     -0.629282
      4 H1          0.5650    3.3100    6.6130 hc        1 MOL      0.082361
      5 H2          1.9760    2.2820    6.2710 hc        1 MOL      0.082361
      6 H3          2.0660    4.0380    5.9940 hc        1 MOL      0.082361
      7 N1         -0.3070    2.6680    4.3140 n         1 MOL     -0.544403
      8 C3         -1.0050    2.3270    2.9780 c3        1 MOL     -0.075351
      9 C4         -1.1010    3.5530    2.1350 c         1 MOL      0.645739
     10 O2         -1.7860    4.5080    2.5180 o         1 MOL     -0.561690
     11 C5         -2.4060    1.7360    3.2190 c3        1 MOL     -0.000431
     12 C6         -3.1530    1.1950    1.9740 c         1 MOL      0.769622
     13 O3         -4.3020    0.8020    2.1440 o         1 MOL     -0.755304
     14 O4         -2.5290    1.0900    0.8770 o         1 MOL     -0.755304
     15 H4         -0.8580    2.4170    5.1230 hn        1 MOL      0.309433
     16 H5         -0.3940    1.5550    2.5210 h1        1 MOL      0.075358
     17 H6         -3.0300    2.4520    3.7680 hc        1 MOL      0.008291
     18 H7         -2.1810    0.9120    3.8890 hc        1 MOL      0.008291
     19 N2         -0.4390    3.5590    0.9540 n         1 MOL     -0.151845
     20 C7         -0.1200    4.7830    0.2390 c3        1 MOL     -0.408306
     21 C8         -1.2150    5.1840   -0.7160 c         1 MOL      0.545666
     22 O5         -1.3340    6.3540   -1.0700 o         1 MOL     -0.571444
     23 C9          1.2140    4.6290   -0.5370 c3        1 MOL      0.154682
     24 C10         1.8440    5.9130   -0.9940 c3        1 MOL     -0.061906
     25 C11         3.2790    5.7630   -1.4680 c3        1 MOL     -0.187089
     26 C12         3.8610    7.1200   -1.8060 c3        1 MOL      0.097124
     27 N3          5.3240    6.9490   -2.2200 n4        1 MOL     -0.354680
     28 H8          0.0990    2.7550    0.6590 hn        1 MOL      0.177396
     29 H9         -0.0000    5.6410    0.9060 h1        1 MOL      0.175339
     30 H10         1.0460    4.0040   -1.4230 hc        1 MOL      0.034879
     31 H11         1.9400    4.1370    0.1070 hc        1 MOL      0.034879
     32 H12         1.7660    6.5190   -0.0910 hc        1 MOL      0.047010
     33 H13         1.3320    6.4870   -1.7560 hc        1 MOL      0.047010
     34 H14         3.2760    5.1630   -2.3760 hc        1 MOL      0.094880
     35 H15         3.8570    5.4410   -0.6000 hc        1 MOL      0.094880
     36 H16         3.7440    7.8270   -0.9890 hx        1 MOL      0.080061
     37 H17         3.3050    7.5930   -2.6190 hx        1 MOL      0.080061
     38 H18         5.4180    6.3650   -3.0400 hn        1 MOL      0.318466
     39 H19         5.6860    7.8390   -2.5150 hn        1 MOL      0.318466
     40 H20         5.9930    6.4730   -1.6350 hn        1 MOL      0.318466
     41 N4         -1.9240    4.2000   -1.1960 n         1 MOL     -0.296401
     42 C13        -3.1770    4.3990   -2.0210 c3        1 MOL      0.038637
     43 C14        -4.4670    4.3050   -1.1790 c         1 MOL      0.509316
     44 O6         -5.4640    4.9600   -1.5100 o         1 MOL     -0.569917
     45 C15        -3.1800    3.5640   -3.2910 c3        1 MOL     -0.169583
     46 C16        -2.7840    2.1530   -3.1890 c         1 MOL      0.727642
     47 O7         -3.1500    1.6130   -2.1280 o         1 MOL     -0.731508
     48 O8         -2.0530    1.6240   -4.1040 o         1 MOL     -0.731508
     49 H21        -1.6600    3.2930   -0.8290 hn        1 MOL      0.198647
     50 H22        -3.2490    5.4520   -2.3210 h1        1 MOL      0.084478
     51 H23        -2.5380    4.0750   -4.0040 hc        1 MOL      0.053544
     52 H24        -4.1650    3.5960   -3.7560 hc        1 MOL      0.053544
     53 N5         -4.4610    3.5450   -0.0930 n         1 MOL     -0.139378
     54 C17        -5.6570    3.2470    0.7360 c3        1 MOL     -0.294430
     55 C18        -6.4090    1.9780    0.2920 c         1 MOL      0.658081
     56 O9         -7.5330    1.7600    0.6980 o         1 MOL     -0.599103
     57 H25        -3.6810    2.9750    0.1850 hn        1 MOL      0.073144
     58 H26        -6.3140    4.1230    0.6370 h1        1 MOL      0.145260
     59 H27        -5.3170    3.1560    1.7630 h1        1 MOL      0.145260
     60 N6         -5.8680    1.1670   -0.6450 n         1 MOL     -0.341165
     61 C19        -6.5110   -0.0610   -1.1840 c3        1 MOL     -0.024003
     62 C20        -6.6810   -1.2650   -0.1730 c         1 MOL      0.504636
     63 O10        -7.0640   -2.3560   -0.6350 o         1 MOL     -0.534552
     64 C21        -5.9390   -0.4420   -2.5410 c3        1 MOL     -0.339101
     65 C22        -4.6380   -1.2020   -2.4260 c         1 MOL      0.696947
     66 N7         -4.2670   -1.9700   -3.4310 n         1 MOL     -0.764642
     67 O11        -3.9410   -1.1320   -1.3820 o         1 MOL     -0.583175
     68 H28        -4.9550    1.3770   -1.0130 hn        1 MOL      0.215680
     69 H29        -7.5080    0.3680   -1.2940 h1        1 MOL      0.116238
     70 H30        -5.7520    0.4330   -3.1550 hc        1 MOL      0.131358
     71 H31        -6.6230   -1.1180   -3.0630 hc        1 MOL      0.131358
     72 H32        -4.8910   -2.1600   -4.2020 hn        1 MOL      0.357452
     73 H33        -3.3850   -2.4520   -3.4020 hn        1 MOL      0.357452
     74 N8         -6.3440   -1.1040    1.1180 n         1 MOL     -0.385571
     75 C23        -6.4860   -2.2150    2.0680 c3        1 MOL     -0.101499
     76 C24        -5.2920   -3.0800    2.3600 c         1 MOL      0.503220
     77 O12        -5.4200   -3.9230    3.2470 o         1 MOL     -0.556721
     78 H34        -5.8100   -0.3470    1.5070 hn        1 MOL      0.388231
     79 H35        -7.3000   -2.8370    1.6850 h1        1 MOL      0.099766
     80 H36        -6.7810   -1.8540    3.0550 h1        1 MOL      0.099766
     81 N9         -4.1330   -2.8970    1.6810 n         1 MOL     -0.222768
     82 C25        -2.9260   -3.6630    2.0010 c3        1 MOL      0.014195
     83 C26        -1.6410   -2.9640    1.5740 c         1 MOL      0.742434
     84 O13        -1.5800   -2.1830    0.6270 o         1 MOL     -0.683255
     85 C27        -2.9920   -5.0250    1.3520 c3        1 MOL     -0.269835
     86 C28        -2.7380   -4.9630   -0.1740 ca        1 MOL      0.021594
     87 C29        -1.3920   -5.1260   -0.6460 ca        1 MOL     -0.062460
     88 C30        -3.8130   -4.9000   -1.0730 ca        1 MOL     -0.062460
     89 C31        -1.1800   -5.2960   -2.0020 ca        1 MOL     -0.330731
     90 C32        -3.5970   -5.0240   -2.4270 ca        1 MOL     -0.330731
     91 C33        -2.2410   -5.2770   -2.9230 ca        1 MOL      0.384238
     92 O14        -2.0310   -5.2560   -4.2570 oh        1 MOL     -0.574591
     93 H37        -4.0290   -2.1210    1.0360 hn        1 MOL      0.187929
     94 H38        -2.9060   -3.8000    3.0810 h1        1 MOL      0.066919
     95 H39        -4.0060   -5.3980    1.5230 hc        1 MOL      0.110773
     96 H40        -2.2430   -5.6430    1.8240 hc        1 MOL      0.110773
     97 H41        -0.5570   -5.1410    0.0230 ha        1 MOL      0.141486
     98 H42        -4.8180   -4.9080   -0.6840 ha        1 MOL      0.141486
     99 H43        -0.1700   -5.2090   -2.3770 ha        1 MOL      0.151457
    100 H44        -4.3770   -4.8750   -3.1550 ha        1 MOL      0.151457
    101 H45        -2.7680   -5.1650   -4.8520 ho        1 MOL      0.428904
    102 N10        -0.5730   -3.3020    2.2970 n         1 MOL     -0.736868
    103 C34         0.8270   -2.8930    2.1190 c3        1 MOL     -0.064250
    104 C35         1.6640   -3.7650    1.1720 c         1 MOL      0.520014
    105 O15         1.7980   -4.9620    1.3920 o         1 MOL     -0.546561
    106 C36         1.6010   -2.7540    3.4300 c3        1 MOL      0.254757
    107 C37         0.7780   -2.0940    4.6090 c3        1 MOL     -0.110604
    108 C38         2.9200   -1.8830    3.1750 c3        1 MOL     -0.725746
    109 C39         0.0330   -0.8610    4.2600 c3        1 MOL      0.032951
    110 H46        -0.6620   -4.0860    2.9320 hn        1 MOL      0.404396
    111 H47         0.8230   -1.8900    1.6880 h1        1 MOL      0.175435
    112 H48         1.8980   -3.7430    3.7980 hc        1 MOL     -0.004016
    113 H49         1.4060   -1.8260    5.4530 hc        1 MOL      0.027055
    114 H50         0.1540   -2.9320    4.9310 hc        1 MOL      0.027055
    115 H51         3.7140   -2.5810    2.9360 hc        1 MOL      0.195404
    116 H52         2.6200   -1.2300    2.3520 hc        1 MOL      0.195404
    117 H53         3.1220   -1.3780    4.1180 hc        1 MOL      0.195404
    118 H54        -0.6680   -1.1680    3.4830 hc        1 MOL      0.002583
    119 H55        -0.4470   -0.5800    5.1900 hc        1 MOL      0.002583
    120 H56         0.6350   -0.0400    3.8610 hc        1 MOL      0.002583
    121 N11         2.2660   -3.1900    0.1630 n         1 MOL     -0.327009
    122 C40         3.3340   -3.7040   -0.6730 c3        1 MOL     -0.021177
    123 C41         4.6920   -3.2140   -0.2340 c         1 MOL      0.495264
    124 O16         4.8140   -2.2040    0.4970 o         1 MOL     -0.405149
    125 C42         3.0910   -3.3460   -2.1150 c3        1 MOL      0.176187
    126 O17         2.6850   -1.9910   -2.4180 oh        1 MOL     -0.536972
    127 H57         2.2190   -2.1850    0.0430 hn        1 MOL      0.321674
    128 H58         3.3340   -4.7840   -0.5920 h1        1 MOL      0.066954
    129 H59         2.2780   -4.0090   -2.4200 h1        1 MOL      0.018890
    130 H60         3.8920   -3.6580   -2.7890 h1        1 MOL      0.018890
    131 H61         2.0760   -1.7580   -1.7120 ho        1 MOL      0.277821
    132 N12         5.8150   -3.8670   -0.6700 n         1 MOL     -0.488482
    133 C43         7.1950   -3.5150   -0.3710 c3        1 MOL      0.165423
    134 C44         7.6130   -2.0770   -0.6620 c         1 MOL      0.489282
    135 O18         8.0130   -1.3010    0.1680 o         1 MOL     -0.476160
    136 C45         8.2280   -4.4840   -0.9690 c3        1 MOL     -0.370174
    137 H62         5.6740   -4.6660   -1.2820 hn        1 MOL      0.286797
    138 H63         7.2900   -3.6280    0.7170 h1        1 MOL      0.082199
    139 H64         8.0860   -4.7360   -2.0140 hc        1 MOL      0.114145
    140 H65         9.1790   -3.9630   -0.8500 hc        1 MOL      0.114145
    141 H66         8.2660   -5.3970   -0.3710 hc        1 MOL      0.114145
    142 N13         7.2590   -1.5970   -1.8800 n         1 MOL     -0.447745
    143 C46         7.3430   -0.2300   -2.3750 c3        1 MOL      0.151035
    144 C47         6.7970    0.8860   -1.5010 c         1 MOL      0.378631
    145 O19         7.1550    2.0570   -1.6380 o         1 MOL     -0.541487
    146 C48         6.5450   -0.1710   -3.7200 c3        1 MOL     -0.409414
    147 H67         6.9320   -2.1970   -2.6240 hn        1 MOL      0.267472
    148 H68         8.3750    0.0940   -2.5140 h1        1 MOL      0.065790
    149 H69         5.5560   -0.5990   -3.5220 hc        1 MOL      0.123542
    150 H70         6.3840    0.8570   -4.0450 hc        1 MOL      0.123542
    151 H71         7.0310   -0.7750   -4.4880 hc        1 MOL      0.123542
    152 N14         5.7610    0.5330   -0.7080 n         1 MOL     -0.082602
    153 C49         5.1640    1.4980    0.2870 c3        1 MOL     -0.078709
    154 C50         5.7000    1.3220    1.6550 c         1 MOL      0.543502
    155 O20         5.7330    2.2560    2.4240 o         1 MOL     -0.529398
    156 C51         3.6270    1.2410    0.3860 c3        1 MOL      0.083719
    157 C52         2.7740    1.3900   -0.8420 c3        1 MOL     -0.064102
    158 C53         1.3870    0.6930   -0.5640 c         1 MOL      0.838314
    159 O21         0.3250    1.3200   -0.4330 o         1 MOL     -0.798348
    160 O22         1.2610   -0.5450   -0.4450 o         1 MOL     -0.798348
    161 H72         5.4210   -0.4160   -0.7230 hn        1 MOL      0.123293
    162 H73         5.3880    2.5440    0.0880 h1        1 MOL      0.059423
    163 H74         3.2090    1.8840    1.1600 hc        1 MOL      0.012710
    164 H75         3.5340    0.2110    0.7030 hc        1 MOL      0.012710
    165 H76         3.2560    0.8510   -1.6560 hc        1 MOL     -0.045280
    166 H77         2.7160    2.4350   -1.1530 hc        1 MOL     -0.045280
    167 N15         6.2690    0.0650    1.9280 n         1 MOL     -0.249990
    168 C54         7.0110   -0.1910    3.1710 c3        1 MOL     -0.177714
    169 H78         7.5760    0.7000    3.4460 h1        1 MOL      0.085261
    170 H79         6.3100   -0.4370    3.9690 h1        1 MOL      0.085261
    171 H80         7.6970   -1.0240    3.0200 h1        1 MOL      0.085261
    172 H81         6.2250   -0.6380    1.2120 hn        1 MOL      0.140825
    173 Ca1        -1.5370   -0.1920   -1.1370 Ca        1 MOL      1.794416
    174 O23        -1.2840   -2.4090   -2.4730 oh        1 MOL     -0.853087
    175 H82        -0.7940   -2.5000   -3.2820 ho        1 MOL      0.410423
    176 H83        -1.0970   -3.2120   -1.9750 ho        1 MOL      0.410423
    177 O24        -0.0070    0.1870   -3.2330 oh        1 MOL     -0.853087
    178 H84        -0.5260    0.6410   -3.8960 ho        1 MOL      0.410423
    179 H85         0.8870    0.1930   -3.5830 ho        1 MOL      0.410423
@<TRIPOS>BOND
     1    1    2 1   
     2    1    4 1   
     3    1    5 1   
     4    1    6 1   
     5    2    3 2   
     6    2    7 1   
     7    7    8 1   
     8    7   15 1   
     9    8    9 1   
    10    8   11 1   
    11    8   16 1   
    12    9   10 2   
    13    9   19 1   
    14   11   12 1   
    15   11   17 1   
    16   11   18 1   
    17   12   13 1   
    18   12   14 1   
    19   19   20 1   
    20   19   28 1   
    21   20   21 1   
    22   20   23 1   
    23   20   29 1   
    24   21   22 2   
    25   21   41 1   
    26   23   24 1   
    27   23   30 1   
    28   23   31 1   
    29   24   25 1   
    30   24   32 1   
    31   24   33 1   
    32   25   26 1   
    33   25   34 1   
    34   25   35 1   
    35   26   27 1   
    36   26   36 1   
    37   26   37 1   
    38   27   38 1   
    39   27   39 1   
    40   27   40 1   
    41   41   42 1   
    42   41   49 1   
    43   42   43 1   
    44   42   45 1   
    45   42   50 1   
    46   43   44 2   
    47   43   53 1   
    48   45   46 1   
    49   45   51 1   
    50   45   52 1   
    51   46   47 1   
    52   46   48 1   
    53   53   54 1   
    54   53   57 1   
    55   54   55 1   
    56   54   58 1   
    57   54   59 1   
    58   55   56 2   
    59   55   60 1   
    60   60   61 1   
    61   60   68 1   
    62   61   62 1   
    63   61   64 1   
    64   61   69 1   
    65   62   63 2   
    66   62   74 1   
    67   64   65 1   
    68   64   70 1   
    69   64   71 1   
    70   65   66 1   
    71   65   67 2   
    72   66   72 1   
    73   66   73 1   
    74   74   75 1   
    75   74   78 1   
    76   75   76 1   
    77   75   79 1   
    78   75   80 1   
    79   76   77 2   
    80   76   81 1   
    81   81   82 1   
    82   81   93 1   
    83   82   83 1   
    84   82   85 1   
    85   82   94 1   
    86   83   84 2   
    87   83  102 1   
    88   85   86 1   
    89   85   95 1   
    90   85   96 1   
    91   86   87 ar  
    92   86   88 ar  
    93   87   89 ar  
    94   87   97 1   
    95   88   90 ar  
    96   88   98 1   
    97   89   91 ar  
    98   89   99 1   
    99   90   91 ar  
   100   90  100 1   
   101   91   92 1   
   102   92  101 1   
   103  102  103 1   
   104  102  110 1   
   105  103  104 1   
   106  103  106 1   
   107  103  111 1   
   108  104  105 2   
   109  104  121 1   
   110  106  107 1   
   111  106  108 1   
   112  106  112 1   
   113  107  109 1   
   114  107  113 1   
   115  107  114 1   
   116  108  115 1   
   117  108  116 1   
   118  108  117 1   
   119  109  118 1   
   120  109  119 1   
   121  109  120 1   
   122  121  122 1   
   123  121  127 1   
   124  122  123 1   
   125  122  125 1   
   126  122  128 1   
   127  123  124 2   
   128  123  132 1   
   129  125  126 1   
   130  125  129 1   
   131  125  130 1   
   132  126  131 1   
   133  132  133 1   
   134  132  137 1   
   135  133  134 1   
   136  133  136 1   
   137  133  138 1   
   138  134  135 2   
   139  134  142 1   
   140  136  139 1   
   141  136  140 1   
   142  136  141 1   
   143  142  143 1   
   144  142  147 1   
   145  143  144 1   
   146  143  146 1   
   147  143  148 1   
   148  144  145 2   
   149  144  152 1   
   150  146  149 1   
   151  146  150 1   
   152  146  151 1   
   153  152  153 1   
   154  152  161 1   
   155  153  154 1   
   156  153  156 1   
   157  153  162 1   
   158  154  155 2   
   159  154  167 1   
   160  156  157 1   
   161  156  163 1   
   162  156  164 1   
   163  157  158 1   
   164  157  165 1   
   165  157  166 1   
   166  158  159 1   
   167  158  160 1   
   168  167  168 1   
   169  167  172 1   
   170  168  169 1   
   171  168  170 1   
   172  168  171 1   
   173  174  175 1   
   174  174  176 1   
   175  177  178 1   
   176  177  179 1   
@<TRIPOS>SUBSTRUCTURE
     1 MOL         1 TEMP              0 ****  ****    0 ROOT
