@<TRIPOS>MOLECULE
MOL
  189   185     1     0     0
SMALL
resp


@<TRIPOS>ATOM
      1 C1          0.3730    1.8720    5.3400 c3        1 MOL     -0.340304
      2 C2         -0.2650    1.7320    3.9460 c         1 MOL      0.646125
      3 O1          0.3740    2.1460    2.9500 o         1 MOL     -0.579242
      4 H1          1.0990    2.6860    5.3260 hc        1 MOL      0.089517
      5 H2         -0.4020    2.0900    6.0750 hc        1 MOL      0.089517
      6 H3          0.8760    0.9430    5.6060 hc        1 MOL      0.089517
      7 N1         -1.4920    1.1630    3.8870 n         1 MOL     -0.554581
      8 C3         -2.1880    1.2040    2.6450 c3        1 MOL      0.146252
      9 C4         -2.6160    2.6420    2.3380 c         1 MOL      0.459402
     10 O2         -3.5410    3.2130    2.8840 o         1 MOL     -0.554630
     11 C5         -3.4130    0.2270    2.7850 c3        1 MOL     -0.263060
     12 C6         -4.1880    0.0930    1.4540 c         1 MOL      0.718049
     13 O3         -5.3140   -0.4250    1.5430 o         1 MOL     -0.671052
     14 O4         -3.7580    0.4470    0.3230 o         1 MOL     -0.671052
     15 H4         -2.0010    1.0540    4.7500 hn        1 MOL      0.326980
     16 H5         -1.5390    0.7860    1.8770 h1        1 MOL      0.067149
     17 H6         -3.9940    0.5210    3.6610 hc        1 MOL      0.077344
     18 H7         -2.8390   -0.6720    2.9880 hc        1 MOL      0.077344
     19 N2         -1.9630    3.2230    1.3020 n         1 MOL     -0.219481
     20 C7         -2.0310    4.5910    0.8760 c3        1 MOL     -0.011084
     21 C8         -3.0230    4.9720   -0.2180 c         1 MOL      0.444199
     22 O5         -3.5120    6.1270   -0.2430 o         1 MOL     -0.563975
     23 C9         -0.5660    5.0750    0.5590 c3        1 MOL     -0.014485
     24 C10        -0.2890    6.5340    0.0240 c3        1 MOL     -0.124588
     25 C11        -0.7390    7.6840    0.9780 c3        1 MOL      0.059269
     26 C12        -0.2620    7.5940    2.4060 c3        1 MOL      0.196394
     27 N3         -0.9810    8.6060    3.2170 n4        1 MOL     -0.508958
     28 H8         -1.3180    2.6300    0.8040 hn        1 MOL      0.204001
     29 H9         -2.3520    5.1440    1.7560 h1        1 MOL      0.050170
     30 H10        -0.3410    4.4280   -0.2890 hc        1 MOL      0.051125
     31 H11         0.1640    4.8790    1.3490 hc        1 MOL      0.051125
     32 H12        -0.8570    6.6930   -0.9010 hc        1 MOL      0.039525
     33 H13         0.7780    6.6410   -0.1740 hc        1 MOL      0.039525
     34 H14        -1.8340    7.6450    0.9960 hc        1 MOL     -0.002804
     35 H15        -0.3790    8.6210    0.5700 hc        1 MOL     -0.002804
     36 H16         0.8020    7.8070    2.4780 hx        1 MOL      0.030566
     37 H17        -0.3790    6.5810    2.8070 hx        1 MOL      0.030566
     38 H18        -0.6800    8.4200    4.1690 hn        1 MOL      0.357590
     39 H19        -0.7240    9.5540    2.9820 hn        1 MOL      0.357590
     40 H20        -1.9790    8.4830    3.1220 hn        1 MOL      0.357590
     41 N4         -3.2910    4.1380   -1.2230 n         1 MOL     -0.185708
     42 C13        -4.3410    4.2850   -2.2550 c3        1 MOL      0.006336
     43 C14        -5.6240    3.5890   -1.7630 c         1 MOL      0.374224
     44 O6         -6.7370    4.0870   -2.1330 o         1 MOL     -0.546633
     45 C15        -3.7840    3.6710   -3.5710 c3        1 MOL     -0.206367
     46 C16        -3.0670    2.3530   -3.6220 c         1 MOL      0.720252
     47 O7         -3.2980    1.4980   -2.7180 o         1 MOL     -0.679647
     48 O8         -2.3250    2.0900   -4.6530 o         1 MOL     -0.679647
     49 H21        -2.9170    3.2050   -1.1540 hn        1 MOL      0.122784
     50 H22        -4.5440    5.3420   -2.3880 h1        1 MOL      0.110295
     51 H23        -3.1100    4.3890   -4.0480 hc        1 MOL      0.062981
     52 H24        -4.5510    3.6560   -4.3520 hc        1 MOL      0.062981
     53 N5         -5.6210    2.5180   -0.9350 n         1 MOL      0.002180
     54 C17        -6.7060    2.0660   -0.0770 c3        1 MOL     -0.230544
     55 C18        -7.3260    0.7830   -0.5830 c         1 MOL      0.707976
     56 O9         -8.5210    0.7960   -0.7720 o         1 MOL     -0.606847
     57 H25        -4.7190    2.0930   -0.7390 hn        1 MOL      0.067086
     58 H26        -7.4420    2.8410    0.1140 h1        1 MOL      0.105236
     59 H27        -6.1600    1.8400    0.8390 h1        1 MOL      0.105236
     60 N6         -6.6010   -0.2790   -0.8940 n         1 MOL     -0.456519
     61 C19        -7.0160   -1.4060   -1.6760 c3        1 MOL      0.091581
     62 C20        -7.0010   -2.7180   -0.8580 c         1 MOL      0.393827
     63 O10        -7.4750   -3.7580   -1.2780 o         1 MOL     -0.560860
     64 C21        -6.1700   -1.5340   -2.9580 c3        1 MOL     -0.207337
     65 C22        -4.6980   -1.7310   -2.6970 c         1 MOL      0.674015
     66 O11        -3.8180   -1.1830   -3.4890 o         1 MOL     -0.694738
     67 O12        -4.2640   -2.1420   -1.5790 o         1 MOL     -0.694738
     68 H28        -5.6110   -0.1390   -0.7400 hn        1 MOL      0.201623
     69 H29        -8.0470   -1.3050   -2.0190 h1        1 MOL      0.095596
     70 H30        -6.3230   -0.5690   -3.4430 hc        1 MOL      0.080040
     71 H31        -6.5310   -2.2850   -3.6600 hc        1 MOL      0.080040
     72 N7         -6.5760   -2.6740    0.3810 n         1 MOL     -0.166789
     73 C23        -6.5350   -3.8380    1.2690 c3        1 MOL     -0.115621
     74 C24        -5.2370   -4.5830    1.1830 c         1 MOL      0.551055
     75 O13        -5.1640   -5.6920    1.7600 o         1 MOL     -0.583436
     76 H32        -6.2310   -1.8020    0.7540 hn        1 MOL      0.209569
     77 H33        -7.4000   -4.4920    1.3200 h1        1 MOL      0.082419
     78 H34        -6.5000   -3.3170    2.2290 h1        1 MOL      0.082419
     79 N8         -4.1790   -4.0240    0.5670 n         1 MOL     -0.282787
     80 C25        -2.8540   -4.6880    0.5210 c3        1 MOL     -0.279608
     81 C26        -1.6880   -3.7360    0.6920 c         1 MOL      0.857473
     82 O14        -1.7250   -2.5540    0.2950 o         1 MOL     -0.705044
     83 C27        -2.6500   -5.5320   -0.7370 c3        1 MOL      0.367354
     84 C28        -3.7380   -6.6350   -0.9200 c3        1 MOL     -0.432728
     85 O15        -2.7420   -4.6050   -1.8030 oh        1 MOL     -0.597963
     86 H35        -4.3490   -3.1800    0.0420 hn        1 MOL      0.250598
     87 H36        -2.8570   -5.3340    1.3900 h1        1 MOL      0.103757
     88 H37        -1.6540   -5.9730   -0.7030 h1        1 MOL      0.028506
     89 H38        -3.6110   -4.2110   -1.7990 ho        1 MOL      0.404999
     90 H39        -3.7280   -7.1740    0.0290 hc        1 MOL      0.121936
     91 H40        -4.7240   -6.1980   -1.0440 hc        1 MOL      0.121936
     92 H41        -3.5540   -7.3950   -1.6770 hc        1 MOL      0.121936
     93 N9         -0.6160   -4.1360    1.4040 n         1 MOL     -0.711239
     94 C29         0.5850   -3.3130    1.6240 c3        1 MOL      0.146059
     95 C30         1.8150   -3.7000    0.8510 c         1 MOL      0.558669
     96 O16         2.2830   -4.8330    0.9970 o         1 MOL     -0.552723
     97 C31         0.8910   -3.4150    3.1760 c3        1 MOL     -0.084775
     98 C32        -0.2190   -2.7760    4.0470 c3        1 MOL      0.339362
     99 C33         2.2520   -2.7240    3.4420 c3        1 MOL     -0.210513
    100 C34        -0.1320   -2.9570    5.5550 c3        1 MOL     -0.263946
    101 H42        -0.6790   -5.0110    1.9040 hn        1 MOL      0.325385
    102 H43         0.3060   -2.2620    1.4830 h1        1 MOL      0.152709
    103 H44         0.9350   -4.4880    3.3830 hc        1 MOL      0.045039
    104 H45        -1.2220   -3.1130    3.8120 hc        1 MOL     -0.066018
    105 H46        -0.2530   -1.7300    3.7190 hc        1 MOL     -0.066018
    106 H47         3.0990   -3.1430    2.8990 hc        1 MOL      0.039035
    107 H48         2.2290   -1.6720    3.1740 hc        1 MOL      0.039035
    108 H49         2.4670   -2.6730    4.5170 hc        1 MOL      0.039035
    109 H50        -0.8470   -2.2760    5.9950 hc        1 MOL      0.052501
    110 H51        -0.3150   -4.0030    5.8080 hc        1 MOL      0.052501
    111 H52         0.8060   -2.5320    5.9210 hc        1 MOL      0.052501
    112 N10         2.3380   -2.7950   -0.0020 n         1 MOL     -0.303092
    113 C35         3.5690   -3.0340   -0.7940 c3        1 MOL      0.014072
    114 C36         4.8940   -2.7960   -0.0980 c         1 MOL      0.298058
    115 O17         5.0530   -2.2680    0.9790 o         1 MOL     -0.270001
    116 C37         3.5780   -2.3330   -2.1040 c3        1 MOL      0.115198
    117 C38         2.3550   -2.6860   -2.8930 c3        1 MOL     -0.437109
    118 O18         3.5130   -0.9250   -2.0200 oh        1 MOL     -0.592322
    119 H53         1.9200   -1.8850   -0.0490 hn        1 MOL      0.182038
    120 H54         3.6190   -4.0970   -1.0480 h1        1 MOL      0.084688
    121 H55         4.4500   -2.6720   -2.6670 h1        1 MOL      0.083634
    122 H56         2.6130   -0.8130   -2.3360 ho        1 MOL      0.430421
    123 H57         1.4510   -2.2490   -2.4580 hc        1 MOL      0.138966
    124 H58         2.4660   -2.3190   -3.9050 hc        1 MOL      0.138966
    125 H59         2.2770   -3.7740   -2.9030 hc        1 MOL      0.138966
    126 N11         5.9900   -3.1980   -0.7180 n         1 MOL     -0.239313
    127 C39         7.3330   -2.8560   -0.2920 c3        1 MOL     -0.285186
    128 C40         7.5720   -1.2920   -0.1750 c         1 MOL      0.515067
    129 O19         8.4910   -0.8810    0.4920 o         1 MOL     -0.515461
    130 C41         8.3800   -3.5040   -1.1910 c3        1 MOL      0.360945
    131 C42         8.3790   -5.0160   -1.1240 c3        1 MOL     -0.298028
    132 O20         8.0380   -3.2340   -2.5020 oh        1 MOL     -0.663055
    133 H60         5.9050   -3.6000   -1.6470 hn        1 MOL      0.253381
    134 H61         7.3560   -3.1530    0.7570 h1        1 MOL      0.151479
    135 H62         9.3680   -3.0960   -1.0060 h1        1 MOL      0.044679
    136 H63         8.6500   -3.6610   -3.1090 ho        1 MOL      0.416181
    137 H64         8.8110   -5.2800   -0.1550 hc        1 MOL      0.080956
    138 H65         7.4400   -5.5000   -1.3900 hc        1 MOL      0.080956
    139 H66         9.1720   -5.3600   -1.7750 hc        1 MOL      0.080956
    140 N12         6.8540   -0.5360   -0.9960 n         1 MOL     -0.296742
    141 C43         6.9630    0.9060   -0.9160 c3        1 MOL     -0.119075
    142 C44         6.0340    1.4880    0.1700 c         1 MOL      0.448614
    143 O21         6.4630    2.3070    0.9700 o         1 MOL     -0.500518
    144 C45         6.5420    1.5420   -2.2840 c3        1 MOL     -0.059833
    145 C46         7.0340    2.9720   -2.4650 c3        1 MOL      0.029625
    146 C47         8.5240    3.0630   -2.7630 c3        1 MOL     -0.166069
    147 C48         9.0770    4.4360   -3.0450 c3        1 MOL      0.188760
    148 N13        10.5390    4.3210   -3.3240 n4        1 MOL     -0.374296
    149 H67         6.2780   -0.9590   -1.7120 hn        1 MOL      0.246260
    150 H68         8.0110    1.1540   -0.7230 h1        1 MOL      0.113111
    151 H69         5.4570    1.5880   -2.3460 hc        1 MOL      0.037116
    152 H70         6.9020    0.9180   -3.1050 hc        1 MOL      0.037116
    153 H71         6.7940    3.5210   -1.5470 hc        1 MOL      0.025122
    154 H72         6.5610    3.4050   -3.3520 hc        1 MOL      0.025122
    155 H73         8.6700    2.4770   -3.6690 hc        1 MOL      0.061478
    156 H74         9.0270    2.7690   -1.8370 hc        1 MOL      0.061478
    157 H75         8.8660    5.1830   -2.2780 hx        1 MOL      0.052975
    158 H76         8.5600    4.8460   -3.9210 hx        1 MOL      0.052975
    159 H77        11.0350    3.8570   -2.5670 hn        1 MOL      0.314034
    160 H78        10.6030    3.5990   -4.0270 hn        1 MOL      0.314034
    161 H79        10.9100    5.2480   -3.4720 hn        1 MOL      0.314034
    162 N14         4.8100    0.9860    0.2910 n         1 MOL     -0.291831
    163 C49         3.9580    1.3370    1.4540 c3        1 MOL     -0.135770
    164 C50         4.6200    0.9510    2.7670 c         1 MOL      0.417836
    165 O22         4.5900    1.8120    3.6590 o         1 MOL     -0.547918
    166 C51         2.5900    0.6190    1.2280 c3        1 MOL      0.147432
    167 C52         1.8510    1.4460    0.1490 c3        1 MOL     -0.133731
    168 C53         0.5820    0.7830   -0.3590 c         1 MOL      0.817924
    169 O23         0.5620   -0.4060   -0.6210 o         1 MOL     -0.773513
    170 O24        -0.4540    1.4520   -0.3710 o         1 MOL     -0.773513
    171 H80         4.5700    0.2860   -0.3940 hn        1 MOL      0.318273
    172 H81         3.8150    2.4130    1.4300 h1        1 MOL      0.121315
    173 H82         1.9100    0.6020    2.0760 hc        1 MOL      0.017144
    174 H83         2.7800   -0.3930    0.8920 hc        1 MOL      0.017144
    175 H84         2.4340    1.5820   -0.7560 hc        1 MOL     -0.014201
    176 H85         1.5600    2.4160    0.5480 hc        1 MOL     -0.014201
    177 N15         5.1930   -0.2300    2.9100 n         1 MOL      0.011662
    178 C54         5.8490   -0.6750    4.1520 c3        1 MOL     -0.347196
    179 H86         6.6630    0.0090    4.3970 h1        1 MOL      0.118541
    180 H87         5.1230   -0.6810    4.9650 h1        1 MOL      0.118541
    181 H88         6.2500   -1.6790    4.0130 h1        1 MOL      0.118541
    182 H89         5.0970   -0.9680    2.2310 hn        1 MOL      0.063723
    183 Ca1        -2.1200   -0.4100   -1.5680 Ca        1 MOL      1.769069
    184 O25        -0.2530    0.7820   -3.5560 oh        1 MOL     -0.844896
    185 H90         0.6160    0.8900   -3.9380 ho        1 MOL      0.384385
    186 H91        -0.8270    1.2930   -4.1300 ho        1 MOL      0.384385
    187 O26        -1.0720   -2.5200   -2.6000 oh        1 MOL     -0.844896
    188 H92        -1.4420   -3.2830   -2.1510 ho        1 MOL      0.384385
    189 H93        -0.7440   -2.8670   -3.4290 ho        1 MOL      0.384385
@<TRIPOS>BOND
     1    1    2 1   
     2    1    4 1   
     3    1    5 1   
     4    1    6 1   
     5    2    3 2   
     6    2    7 1   
     7    7    8 1   
     8    7   15 1   
     9    8    9 1   
    10    8   11 1   
    11    8   16 1   
    12    9   10 2   
    13    9   19 1   
    14   11   12 1   
    15   11   17 1   
    16   11   18 1   
    17   12   13 1   
    18   12   14 1   
    19   19   20 1   
    20   19   28 1   
    21   20   21 1   
    22   20   23 1   
    23   20   29 1   
    24   21   22 2   
    25   21   41 1   
    26   23   24 1   
    27   23   30 1   
    28   23   31 1   
    29   24   25 1   
    30   24   32 1   
    31   24   33 1   
    32   25   26 1   
    33   25   34 1   
    34   25   35 1   
    35   26   27 1   
    36   26   36 1   
    37   26   37 1   
    38   27   38 1   
    39   27   39 1   
    40   27   40 1   
    41   41   42 1   
    42   41   49 1   
    43   42   43 1   
    44   42   45 1   
    45   42   50 1   
    46   43   44 2   
    47   43   53 1   
    48   45   46 1   
    49   45   51 1   
    50   45   52 1   
    51   46   47 1   
    52   46   48 1   
    53   53   54 1   
    54   53   57 1   
    55   54   55 1   
    56   54   58 1   
    57   54   59 1   
    58   55   56 2   
    59   55   60 1   
    60   60   61 1   
    61   60   68 1   
    62   61   62 1   
    63   61   64 1   
    64   61   69 1   
    65   62   63 2   
    66   62   72 1   
    67   64   65 1   
    68   64   70 1   
    69   64   71 1   
    70   65   66 1   
    71   65   67 1   
    72   72   73 1   
    73   72   76 1   
    74   73   74 1   
    75   73   77 1   
    76   73   78 1   
    77   74   75 2   
    78   74   79 1   
    79   79   80 1   
    80   79   86 1   
    81   80   81 1   
    82   80   83 1   
    83   80   87 1   
    84   81   82 2   
    85   81   93 1   
    86   83   84 1   
    87   83   85 1   
    88   83   88 1   
    89   84   90 1   
    90   84   91 1   
    91   84   92 1   
    92   85   89 1   
    93   93   94 1   
    94   93  101 1   
    95   94   95 1   
    96   94   97 1   
    97   94  102 1   
    98   95   96 2   
    99   95  112 1   
   100   97   98 1   
   101   97   99 1   
   102   97  103 1   
   103   98  100 1   
   104   98  104 1   
   105   98  105 1   
   106   99  106 1   
   107   99  107 1   
   108   99  108 1   
   109  100  109 1   
   110  100  110 1   
   111  100  111 1   
   112  112  113 1   
   113  112  119 1   
   114  113  114 1   
   115  113  116 1   
   116  113  120 1   
   117  114  115 2   
   118  114  126 1   
   119  116  117 1   
   120  116  118 1   
   121  116  121 1   
   122  117  123 1   
   123  117  124 1   
   124  117  125 1   
   125  118  122 1   
   126  126  127 1   
   127  126  133 1   
   128  127  128 1   
   129  127  130 1   
   130  127  134 1   
   131  128  129 2   
   132  128  140 1   
   133  130  131 1   
   134  130  132 1   
   135  130  135 1   
   136  131  137 1   
   137  131  138 1   
   138  131  139 1   
   139  132  136 1   
   140  140  141 1   
   141  140  149 1   
   142  141  142 1   
   143  141  144 1   
   144  141  150 1   
   145  142  143 2   
   146  142  162 1   
   147  144  145 1   
   148  144  151 1   
   149  144  152 1   
   150  145  146 1   
   151  145  153 1   
   152  145  154 1   
   153  146  147 1   
   154  146  155 1   
   155  146  156 1   
   156  147  148 1   
   157  147  157 1   
   158  147  158 1   
   159  148  159 1   
   160  148  160 1   
   161  148  161 1   
   162  162  163 1   
   163  162  171 1   
   164  163  164 1   
   165  163  166 1   
   166  163  172 1   
   167  164  165 2   
   168  164  177 1   
   169  166  167 1   
   170  166  173 1   
   171  166  174 1   
   172  167  168 1   
   173  167  175 1   
   174  167  176 1   
   175  168  169 1   
   176  168  170 1   
   177  177  178 1   
   178  177  182 1   
   179  178  179 1   
   180  178  180 1   
   181  178  181 1   
   182  184  185 1   
   183  184  186 1   
   184  187  188 1   
   185  187  189 1   
@<TRIPOS>SUBSTRUCTURE
     1 MOL         1 TEMP              0 ****  ****    0 ROOT
