@<TRIPOS>MOLECULE
MOL
  189   185     1     0     0
SMALL
resp


@<TRIPOS>ATOM
      1 C1         -1.9190    3.2970    5.6860 c3        1 MOL     -0.335729
      2 C2         -1.8950    2.7260    4.3120 c         1 MOL      0.814742
      3 O1         -1.0030    3.1550    3.5670 o         1 MOL     -0.634528
      4 H1         -1.7900    2.4960    6.4140 hc        1 MOL      0.076278
      5 H2         -1.1100    4.0200    5.7950 hc        1 MOL      0.076278
      6 H3         -2.8750    3.7930    5.8570 hc        1 MOL      0.076278
      7 N1         -2.9080    1.9380    3.8650 n         1 MOL     -0.737337
      8 C3         -3.0520    1.6120    2.4500 c3        1 MOL      0.219704
      9 C4         -3.5640    2.8090    1.6700 c         1 MOL      0.488884
     10 O2         -4.7650    3.1210    1.6470 o         1 MOL     -0.568835
     11 C5         -4.0530    0.4510    2.4900 c3        1 MOL     -0.162146
     12 C6         -4.3420   -0.1690    1.1160 c         1 MOL      0.834925
     13 O3         -3.6660    0.1380    0.1610 o         1 MOL     -0.723596
     14 O4         -5.2490   -0.9950    1.0780 o         1 MOL     -0.723596
     15 H4         -3.7290    1.8390    4.4450 hn        1 MOL      0.356257
     16 H5         -2.1120    1.2290    2.0380 h1        1 MOL      0.050337
     17 H6         -4.9870    0.7500    2.9540 hc        1 MOL      0.025729
     18 H7         -3.6180   -0.2670    3.1900 hc        1 MOL      0.025729
     19 N2         -2.7080    3.4510    0.9060 n         1 MOL     -0.258808
     20 C7         -2.8960    4.8080    0.4170 c3        1 MOL     -0.004525
     21 C8         -3.5970    4.8370   -0.9780 c         1 MOL      0.521342
     22 O5         -4.0050    5.9070   -1.3990 o         1 MOL     -0.577460
     23 C9         -1.5400    5.5800    0.6690 c3        1 MOL      0.002260
     24 C10        -1.4490    7.0440    0.3820 c3        1 MOL     -0.097658
     25 C11        -2.1070    8.0250    1.3970 c3        1 MOL     -0.080733
     26 C12        -1.6890    9.4010    0.8680 c3        1 MOL      0.209674
     27 N3         -2.2320   10.4670    1.7650 n4        1 MOL     -0.455178
     28 H8         -1.9080    2.9000    0.6360 hn        1 MOL      0.187198
     29 H9         -3.6600    5.3190    1.0070 h1        1 MOL      0.060746
     30 H10        -0.7440    5.1040    0.0980 hc        1 MOL      0.051801
     31 H11        -1.3000    5.4460    1.7240 hc        1 MOL      0.051801
     32 H12        -1.9960    7.1330   -0.5680 hc        1 MOL      0.036698
     33 H13        -0.4090    7.3070    0.2130 hc        1 MOL      0.036698
     34 H14        -1.6380    7.7870    2.3520 hc        1 MOL      0.049290
     35 H15        -3.1930    7.9720    1.4570 hc        1 MOL      0.049290
     36 H16        -1.9300    9.5530   -0.1850 hx        1 MOL      0.038402
     37 H17        -0.6080    9.4800    0.9260 hx        1 MOL      0.038402
     38 H18        -2.1050   10.1150    2.7070 hn        1 MOL      0.343108
     39 H19        -1.7000   11.3100    1.5820 hn        1 MOL      0.343108
     40 H20        -3.1780   10.7330    1.5140 hn        1 MOL      0.343108
     41 N4         -3.6790    3.6900   -1.6330 n         1 MOL     -0.351051
     42 C13        -4.2550    3.5320   -3.0720 c3        1 MOL      0.169442
     43 C14        -5.4770    2.5830   -2.9790 c         1 MOL      0.415110
     44 O6         -6.4250    2.6640   -3.7650 o         1 MOL     -0.556252
     45 C15        -3.1990    3.2020   -4.1150 c3        1 MOL     -0.266565
     46 C16        -2.2170    2.0510   -3.7950 c         1 MOL      0.765541
     47 O7         -2.3090    1.5140   -2.6810 o         1 MOL     -0.703399
     48 O8         -1.3270    1.7240   -4.5930 o         1 MOL     -0.703399
     49 H21        -3.2680    2.8370   -1.3010 hn        1 MOL      0.218798
     50 H22        -4.7330    4.4600   -3.3630 h1        1 MOL      0.040066
     51 H23        -2.6350    4.1110   -4.2990 hc        1 MOL      0.070624
     52 H24        -3.6770    2.9100   -5.0460 hc        1 MOL      0.070624
     53 N5         -5.4580    1.7150   -2.0210 n         1 MOL     -0.008040
     54 C17        -6.5000    0.8490   -1.5400 c3        1 MOL     -0.270513
     55 C18        -6.5320   -0.4990   -2.2730 c         1 MOL      0.598454
     56 O9         -7.0200   -0.6160   -3.3740 o         1 MOL     -0.514651
     57 H25        -4.6400    1.7300   -1.4330 hn        1 MOL      0.006506
     58 H26        -7.4750    1.3370   -1.6110 h1        1 MOL      0.121551
     59 H27        -6.3240    0.7110   -0.4800 h1        1 MOL      0.121551
     60 N6         -6.1010   -1.5830   -1.5700 n         1 MOL     -0.364280
     61 C19        -6.2920   -2.9600   -2.0150 c3        1 MOL     -0.041179
     62 C20        -6.3620   -4.0060   -0.8980 c         1 MOL      0.485104
     63 O10        -6.4270   -5.2010   -1.2960 o         1 MOL     -0.514174
     64 C21        -5.1120   -3.2670   -2.9820 c3        1 MOL     -0.249639
     65 C22        -3.7950   -2.7280   -2.5120 c         1 MOL      0.729253
     66 O11        -3.4110   -2.8830   -1.3220 o         1 MOL     -0.726502
     67 O12        -3.0180   -2.1420   -3.2570 o         1 MOL     -0.726502
     68 H28        -5.9290   -1.3720   -0.5960 hn        1 MOL      0.141644
     69 H29        -7.2740   -3.0250   -2.4940 h1        1 MOL      0.102337
     70 H30        -5.2070   -2.7230   -3.9220 hc        1 MOL      0.097169
     71 H31        -4.9340   -4.3300   -3.1500 hc        1 MOL      0.097169
     72 N7         -6.2860   -3.5490    0.3660 n         1 MOL     -0.404152
     73 C23        -6.2340   -4.4640    1.5040 c3        1 MOL     -0.041290
     74 C24        -4.8110   -4.8400    1.8760 c         1 MOL      0.611726
     75 O13        -4.6380   -5.8950    2.4310 o         1 MOL     -0.605739
     76 H32        -6.1950   -2.5650    0.5780 hn        1 MOL      0.348166
     77 H33        -6.7920   -5.3910    1.3220 h1        1 MOL      0.068573
     78 H34        -6.6510   -3.9890    2.3940 h1        1 MOL      0.068573
     79 N8         -3.7830   -4.1280    1.4360 n         1 MOL     -0.395700
     80 C25        -2.4050   -4.6110    1.5250 c3        1 MOL     -0.004892
     81 C26        -1.4230   -3.3660    1.4360 c         1 MOL      0.485061
     82 O14        -1.7740   -2.2880    0.9340 o         1 MOL     -0.587556
     83 C27        -2.0470   -5.5890    0.3640 c3        1 MOL      0.681970
     84 C28        -2.0720   -7.1020    0.6410 c3        1 MOL     -0.606029
     85 O15        -2.9360   -5.3810   -0.7470 oh        1 MOL     -0.749146
     86 H35        -3.9350   -3.2610    0.9350 hn        1 MOL      0.228821
     87 H36        -2.3040   -5.2320    2.4150 h1        1 MOL      0.034914
     88 H37        -1.0560   -5.3690   -0.0320 h1        1 MOL     -0.133096
     89 H38        -3.2990   -4.4930   -0.7500 ho        1 MOL      0.509162
     90 H39        -1.2220   -7.3330    1.2810 hc        1 MOL      0.151661
     91 H40        -3.0110   -7.3450    1.1360 hc        1 MOL      0.151661
     92 H41        -2.2450   -7.7950   -0.1710 hc        1 MOL      0.151661
     93 N9         -0.1910   -3.5490    1.9020 n         1 MOL     -0.442855
     94 C29         0.9420   -2.6800    2.1960 c3        1 MOL      0.094832
     95 C30         2.1600   -3.1590    1.4500 c         1 MOL      0.406780
     96 O16         2.6480   -4.2540    1.7350 o         1 MOL     -0.561065
     97 C31         1.1670   -2.7210    3.6790 c3        1 MOL     -0.036381
     98 C32         0.0230   -1.9670    4.4380 c3        1 MOL      0.042172
     99 C33         2.5570   -2.0830    4.0450 c3        1 MOL     -0.128849
    100 C34         0.1850   -1.8920    5.9600 c3        1 MOL     -0.318249
    101 H42        -0.0190   -4.4650    2.3090 hn        1 MOL      0.252426
    102 H43         0.7910   -1.6580    1.8620 h1        1 MOL      0.047277
    103 H44         1.1730   -3.7550    4.0200 hc        1 MOL      0.043147
    104 H45        -0.9360   -2.4730    4.2700 hc        1 MOL      0.043868
    105 H46        -0.0740   -0.9420    4.0890 hc        1 MOL      0.043868
    106 H47         2.7600   -2.1050    5.1220 hc        1 MOL      0.031480
    107 H48         3.4470   -2.5870    3.6620 hc        1 MOL      0.031480
    108 H49         2.5150   -1.0320    3.7620 hc        1 MOL      0.031480
    109 H50         1.0680   -1.2710    6.0980 hc        1 MOL      0.081633
    110 H51        -0.7120   -1.5080    6.4690 hc        1 MOL      0.081633
    111 H52         0.4160   -2.9170    6.2400 hc        1 MOL      0.081633
    112 N10         2.5840   -2.3670    0.5280 n         1 MOL     -0.033229
    113 C35         3.8250   -2.5960   -0.2860 c3        1 MOL     -0.023907
    114 C36         5.0740   -2.0560    0.3580 c         1 MOL      0.281266
    115 O17         5.0350   -1.3520    1.4330 o         1 MOL     -0.339940
    116 C37         3.7040   -1.9040   -1.6640 c3        1 MOL      0.173788
    117 C38         2.7250   -2.5460   -2.6240 c3        1 MOL     -0.587881
    118 O18         3.3170   -0.5590   -1.5160 oh        1 MOL     -0.464738
    119 H53         2.0430   -1.5280    0.3820 hn        1 MOL      0.146402
    120 H54         4.0320   -3.6480   -0.5040 h1        1 MOL      0.087734
    121 H55         4.6720   -1.9610   -2.1570 h1        1 MOL      0.046960
    122 H56         2.3750   -0.5730   -1.3590 ho        1 MOL      0.305535
    123 H57         2.7110   -2.0770   -3.6090 hc        1 MOL      0.164890
    124 H58         2.9870   -3.6020   -2.7560 hc        1 MOL      0.164890
    125 H59         1.7480   -2.6770   -2.1800 hc        1 MOL      0.164890
    126 N11         6.2820   -2.2950   -0.1870 n         1 MOL     -0.313230
    127 C39         7.6460   -1.7910    0.2340 c3        1 MOL      0.063338
    128 C40         7.6190   -0.2490    0.1440 c         1 MOL      0.210634
    129 O19         8.2530    0.3400    0.9930 o         1 MOL     -0.444189
    130 C41         8.7460   -2.3180   -0.7800 c3        1 MOL      0.145621
    131 C42         9.1750   -3.7220   -0.4410 c3        1 MOL     -0.244945
    132 O20         8.2660   -2.2840   -2.0990 oh        1 MOL     -0.636934
    133 H60         6.3140   -2.8550   -1.0250 hn        1 MOL      0.270722
    134 H61         7.9940   -2.1910    1.1890 h1        1 MOL      0.118356
    135 H62         9.6480   -1.7170   -0.6820 h1        1 MOL      0.055077
    136 H63         8.9940   -2.2790   -2.7170 ho        1 MOL      0.412862
    137 H64         8.3480   -4.3110   -0.0440 hc        1 MOL      0.081818
    138 H65         9.6130   -4.2750   -1.2740 hc        1 MOL      0.081818
    139 H66         9.9630   -3.7610    0.3100 hc        1 MOL      0.081818
    140 N12         6.9450    0.3550   -0.8730 n         1 MOL     -0.023136
    141 C43         6.6410    1.7660   -0.9320 c3        1 MOL      0.152341
    142 C44         5.9340    2.2870    0.3150 c         1 MOL      0.226058
    143 O21         6.3750    3.1990    1.0070 o         1 MOL     -0.468651
    144 C45         5.9430    2.0610   -2.2300 c3        1 MOL     -0.298243
    145 C46         6.5810    1.4730   -3.4780 c3        1 MOL      0.174592
    146 C47         8.0450    1.6570   -3.6530 c3        1 MOL     -0.209403
    147 C48         8.4930    1.0640   -5.0200 c3        1 MOL      0.064443
    148 N13         9.9580    0.9820   -5.0510 n4        1 MOL     -0.438783
    149 H67         6.6770   -0.2040   -1.6740 hn        1 MOL      0.091331
    150 H68         7.6300    2.2300   -0.9500 h1        1 MOL      0.001954
    151 H69         5.9720    3.1430   -2.2590 hc        1 MOL      0.085225
    152 H70         4.9200    1.7040   -2.1020 hc        1 MOL      0.085225
    153 H71         6.0280    1.7670   -4.3750 hc        1 MOL      0.008635
    154 H72         6.2760    0.4280   -3.4770 hc        1 MOL      0.008635
    155 H73         8.5580    1.2030   -2.8010 hc        1 MOL      0.080021
    156 H74         8.2700    2.7200   -3.6210 hc        1 MOL      0.080021
    157 H75         8.0660    1.6140   -5.8570 hx        1 MOL      0.087585
    158 H76         8.0330    0.0840   -5.1310 hx        1 MOL      0.087585
    159 H77        10.1650    0.3810   -4.2720 hn        1 MOL      0.337737
    160 H78        10.3070    0.7270   -5.9670 hn        1 MOL      0.337737
    161 H79        10.2970    1.9240   -4.9580 hn        1 MOL      0.337737
    162 N14         4.7780    1.7070    0.5450 n         1 MOL     -0.058572
    163 C49         3.8440    2.0280    1.6240 c3        1 MOL     -0.076294
    164 C50         4.3830    1.8600    2.9890 c         1 MOL      0.394992
    165 O22         4.1530    2.6540    3.9090 o         1 MOL     -0.546732
    166 C51         2.5880    1.1470    1.4890 c3        1 MOL      0.079190
    167 C52         1.6010    1.7160    0.4510 c3        1 MOL     -0.112371
    168 C53         0.5220    0.7750   -0.0040 c         1 MOL      0.671140
    169 O23         0.7680   -0.2700   -0.6720 o         1 MOL     -0.667436
    170 O24        -0.6740    1.1130    0.1720 o         1 MOL     -0.667436
    171 H80         4.6210    0.9040   -0.0320 hn        1 MOL      0.189137
    172 H81         3.4080    3.0270    1.4960 h1        1 MOL      0.086353
    173 H82         2.0800    1.0910    2.4480 hc        1 MOL      0.033782
    174 H83         3.0320    0.2010    1.1700 hc        1 MOL      0.033782
    175 H84         2.2440    2.0680   -0.3550 hc        1 MOL      0.005864
    176 H85         1.1890    2.6190    0.8980 hc        1 MOL      0.005864
    177 N15         5.1710    0.8030    3.2490 n         1 MOL     -0.000622
    178 C54         5.7420    0.4980    4.5370 c3        1 MOL     -0.366820
    179 H86         5.5560   -0.5490    4.7770 h1        1 MOL      0.120566
    180 H87         6.8170    0.6790    4.5120 h1        1 MOL      0.120566
    181 H88         5.2840    1.1310    5.2960 h1        1 MOL      0.120566
    182 H89         5.2130    0.0510    2.5790 hn        1 MOL      0.098826
    183 Ca1        -1.7780   -0.7320   -1.3510 Ca        1 MOL      1.737897
    184 O25        -0.5690   -3.3090   -1.8020 oh        1 MOL     -0.838551
    185 H90        -1.1500   -3.3460   -2.5680 ho        1 MOL      0.400847
    186 H91        -0.8440   -4.0580   -1.2700 ho        1 MOL      0.400847
    187 O26        -0.1610   -0.6160   -3.4080 oh        1 MOL     -0.838551
    188 H92        -0.1710    0.1780   -3.9470 ho        1 MOL      0.400847
    189 H93         0.3570   -1.2500   -3.9080 ho        1 MOL      0.400847
@<TRIPOS>BOND
     1    1    2 1   
     2    1    4 1   
     3    1    5 1   
     4    1    6 1   
     5    2    3 2   
     6    2    7 1   
     7    7    8 1   
     8    7   15 1   
     9    8    9 1   
    10    8   11 1   
    11    8   16 1   
    12    9   10 2   
    13    9   19 1   
    14   11   12 1   
    15   11   17 1   
    16   11   18 1   
    17   12   13 1   
    18   12   14 1   
    19   19   20 1   
    20   19   28 1   
    21   20   21 1   
    22   20   23 1   
    23   20   29 1   
    24   21   22 2   
    25   21   41 1   
    26   23   24 1   
    27   23   30 1   
    28   23   31 1   
    29   24   25 1   
    30   24   32 1   
    31   24   33 1   
    32   25   26 1   
    33   25   34 1   
    34   25   35 1   
    35   26   27 1   
    36   26   36 1   
    37   26   37 1   
    38   27   38 1   
    39   27   39 1   
    40   27   40 1   
    41   41   42 1   
    42   41   49 1   
    43   42   43 1   
    44   42   45 1   
    45   42   50 1   
    46   43   44 2   
    47   43   53 1   
    48   45   46 1   
    49   45   51 1   
    50   45   52 1   
    51   46   47 1   
    52   46   48 1   
    53   53   54 1   
    54   53   57 1   
    55   54   55 1   
    56   54   58 1   
    57   54   59 1   
    58   55   56 2   
    59   55   60 1   
    60   60   61 1   
    61   60   68 1   
    62   61   62 1   
    63   61   64 1   
    64   61   69 1   
    65   62   63 2   
    66   62   72 1   
    67   64   65 1   
    68   64   70 1   
    69   64   71 1   
    70   65   66 1   
    71   65   67 1   
    72   72   73 1   
    73   72   76 1   
    74   73   74 1   
    75   73   77 1   
    76   73   78 1   
    77   74   75 2   
    78   74   79 1   
    79   79   80 1   
    80   79   86 1   
    81   80   81 1   
    82   80   83 1   
    83   80   87 1   
    84   81   82 2   
    85   81   93 1   
    86   83   84 1   
    87   83   85 1   
    88   83   88 1   
    89   84   90 1   
    90   84   91 1   
    91   84   92 1   
    92   85   89 1   
    93   93   94 1   
    94   93  101 1   
    95   94   95 1   
    96   94   97 1   
    97   94  102 1   
    98   95   96 2   
    99   95  112 1   
   100   97   98 1   
   101   97   99 1   
   102   97  103 1   
   103   98  100 1   
   104   98  104 1   
   105   98  105 1   
   106   99  106 1   
   107   99  107 1   
   108   99  108 1   
   109  100  109 1   
   110  100  110 1   
   111  100  111 1   
   112  112  113 1   
   113  112  119 1   
   114  113  114 1   
   115  113  116 1   
   116  113  120 1   
   117  114  115 2   
   118  114  126 1   
   119  116  117 1   
   120  116  118 1   
   121  116  121 1   
   122  117  123 1   
   123  117  124 1   
   124  117  125 1   
   125  118  122 1   
   126  126  127 1   
   127  126  133 1   
   128  127  128 1   
   129  127  130 1   
   130  127  134 1   
   131  128  129 2   
   132  128  140 1   
   133  130  131 1   
   134  130  132 1   
   135  130  135 1   
   136  131  137 1   
   137  131  138 1   
   138  131  139 1   
   139  132  136 1   
   140  140  141 1   
   141  140  149 1   
   142  141  142 1   
   143  141  144 1   
   144  141  150 1   
   145  142  143 2   
   146  142  162 1   
   147  144  145 1   
   148  144  151 1   
   149  144  152 1   
   150  145  146 1   
   151  145  153 1   
   152  145  154 1   
   153  146  147 1   
   154  146  155 1   
   155  146  156 1   
   156  147  148 1   
   157  147  157 1   
   158  147  158 1   
   159  148  159 1   
   160  148  160 1   
   161  148  161 1   
   162  162  163 1   
   163  162  171 1   
   164  163  164 1   
   165  163  166 1   
   166  163  172 1   
   167  164  165 2   
   168  164  177 1   
   169  166  167 1   
   170  166  173 1   
   171  166  174 1   
   172  167  168 1   
   173  167  175 1   
   174  167  176 1   
   175  168  169 1   
   176  168  170 1   
   177  177  178 1   
   178  177  182 1   
   179  178  179 1   
   180  178  180 1   
   181  178  181 1   
   182  184  185 1   
   183  184  186 1   
   184  187  188 1   
   185  187  189 1   
@<TRIPOS>SUBSTRUCTURE
     1 MOL         1 TEMP              0 ****  ****    0 ROOT
