@<TRIPOS>MOLECULE
MOL
  189   185     1     0     0
SMALL
resp


@<TRIPOS>ATOM
      1 C1         -0.1900    1.7580    6.4060 c3        1 MOL     -0.298939
      2 C2         -0.6310    1.8230    4.9470 c         1 MOL      0.776222
      3 O1          0.1580    2.3560    4.2020 o         1 MOL     -0.619616
      4 H1          0.8560    2.0550    6.4830 hc        1 MOL      0.068763
      5 H2         -0.8030    2.4340    7.0020 hc        1 MOL      0.068763
      6 H3         -0.3060    0.7390    6.7770 hc        1 MOL      0.068763
      7 N1         -1.7550    1.3090    4.6060 n         1 MOL     -0.650324
      8 C3         -2.3770    1.3570    3.2200 c3        1 MOL      0.142165
      9 C4         -2.7700    2.7910    2.8200 c         1 MOL      0.516110
     10 O2         -3.7170    3.4320    3.4020 o         1 MOL     -0.558986
     11 C5         -3.5550    0.3120    3.1490 c3        1 MOL     -0.057169
     12 C6         -4.0310    0.0200    1.7660 c         1 MOL      0.689579
     13 O3         -3.6020    0.6520    0.8090 o         1 MOL     -0.706884
     14 O4         -4.9160   -0.8840    1.6150 o         1 MOL     -0.706884
     15 H4         -2.4020    0.8650    5.2560 hn        1 MOL      0.329602
     16 H5         -1.5660    0.9910    2.6000 h1        1 MOL     -0.070990
     17 H6         -4.3630    0.6210    3.8190 hc        1 MOL      0.026612
     18 H7         -3.2310   -0.6290    3.5830 hc        1 MOL      0.026612
     19 N2         -2.0610    3.3670    1.8240 n         1 MOL     -0.147111
     20 C7         -2.1710    4.8270    1.5270 c3        1 MOL     -0.051912
     21 C8         -3.3920    5.1670    0.7150 c         1 MOL      0.467846
     22 O5         -3.9610    6.2720    0.7290 o         1 MOL     -0.549535
     23 C9         -0.8410    5.2720    0.9630 c3        1 MOL     -0.117684
     24 C10        -0.6940    4.7800   -0.4620 c3        1 MOL      0.055197
     25 C11         0.7390    4.6630   -0.8790 c3        1 MOL     -0.120336
     26 C12         1.0620    3.5780   -1.9450 c3        1 MOL      0.245957
     27 N3          0.2600    3.7290   -3.2030 n4        1 MOL     -0.508851
     28 H8         -1.2790    2.8900    1.3830 hn        1 MOL      0.130640
     29 H9         -2.1900    5.3560    2.4740 h1        1 MOL      0.096247
     30 H10         0.0210    4.8060    1.4560 hc        1 MOL      0.062536
     31 H11        -0.7850    6.3590    0.9630 hc        1 MOL      0.062536
     32 H12        -1.2540    5.3900   -1.1710 hc        1 MOL      0.010294
     33 H13        -1.1240    3.7810   -0.4880 hc        1 MOL      0.010294
     34 H14         1.2900    4.1520   -0.0970 hc        1 MOL      0.036099
     35 H15         1.1930    5.5880   -1.2420 hc        1 MOL      0.036099
     36 H16         0.9150    2.5510   -1.6090 hx        1 MOL     -0.026551
     37 H17         2.1390    3.7130   -2.0680 hx        1 MOL     -0.026551
     38 H18        -0.7320    3.6110   -3.1100 hn        1 MOL      0.329265
     39 H19         0.5600    4.6040   -3.6100 hn        1 MOL      0.329265
     40 H20         0.4890    3.0010   -3.8740 hn        1 MOL      0.329265
     41 N4         -3.8710    4.1720   -0.0350 n         1 MOL     -0.171919
     42 C13        -4.9300    4.1240   -1.0160 c3        1 MOL     -0.075384
     43 C14        -6.1600    3.1530   -0.8580 c         1 MOL      0.403242
     44 O6         -7.1350    3.1950   -1.6280 o         1 MOL     -0.525221
     45 C15        -4.3480    4.0340   -2.3940 c3        1 MOL     -0.054017
     46 C16        -3.2570    3.0160   -2.4880 c         1 MOL      0.823764
     47 O7         -3.2930    2.1090   -1.6860 o         1 MOL     -0.783508
     48 O8         -2.4330    3.0660   -3.4350 o         1 MOL     -0.783508
     49 H21        -3.4020    3.2850    0.1080 hn        1 MOL      0.015089
     50 H22        -5.3670    5.1250   -0.9670 h1        1 MOL      0.120023
     51 H23        -3.9530    5.0040   -2.6740 hc        1 MOL      0.026897
     52 H24        -5.1140    3.8810   -3.1580 hc        1 MOL      0.026897
     53 N5         -6.2070    2.4290    0.2230 n         1 MOL     -0.204733
     54 C17        -7.3130    1.5570    0.6230 c3        1 MOL     -0.179331
     55 C18        -7.4510    0.2860   -0.1990 c         1 MOL      0.599193
     56 O9         -8.5140   -0.2830   -0.2670 o         1 MOL     -0.613294
     57 H25        -5.3640    2.3890    0.7810 hn        1 MOL      0.224425
     58 H26        -8.2640    2.0790    0.7360 h1        1 MOL      0.104537
     59 H27        -6.9620    1.2500    1.6040 h1        1 MOL      0.104537
     60 N6         -6.4800   -0.0670   -1.0360 n         1 MOL     -0.280800
     61 C19        -6.6200   -1.0600   -2.1570 c3        1 MOL     -0.139598
     62 C20        -6.4930   -2.5770   -1.6750 c         1 MOL      0.517717
     63 O10        -6.5060   -3.4680   -2.4220 o         1 MOL     -0.508417
     64 C21        -5.5990   -0.8140   -3.2560 c3        1 MOL     -0.223488
     65 C22        -4.1660   -0.8860   -2.7130 c         1 MOL      0.889109
     66 O11        -3.9170   -1.3010   -1.6070 o         1 MOL     -0.807626
     67 O12        -3.2010   -0.8320   -3.4820 o         1 MOL     -0.807626
     68 H28        -5.5730    0.3710   -0.9140 hn        1 MOL      0.318815
     69 H29        -7.5970   -0.9770   -2.6290 h1        1 MOL      0.149981
     70 H30        -5.7480    0.1560   -3.7210 hc        1 MOL      0.076899
     71 H31        -5.7370   -1.5440   -4.0490 hc        1 MOL      0.076899
     72 N7         -6.6050   -2.7070   -0.3030 n         1 MOL     -0.360484
     73 C23        -6.4840   -4.0190    0.3710 c3        1 MOL     -0.179601
     74 C24        -5.0640   -4.5700    0.6430 c         1 MOL      0.522183
     75 O13        -4.8970   -5.7470    1.1430 o         1 MOL     -0.572536
     76 H32        -6.5340   -1.8220    0.1810 hn        1 MOL      0.322990
     77 H33        -7.0050   -4.7510   -0.2350 h1        1 MOL      0.120079
     78 H34        -6.9590   -3.9810    1.3510 h1        1 MOL      0.120079
     79 N8         -4.0100   -3.8610    0.1750 n         1 MOL     -0.290974
     80 C25        -2.7280   -4.4220   -0.0870 c3        1 MOL     -0.008476
     81 C26        -1.6140   -3.4690    0.3880 c         1 MOL      0.657235
     82 O14        -1.8610   -2.2750    0.5010 o         1 MOL     -0.643979
     83 C27        -2.4840   -4.7860   -1.5870 c3        1 MOL      0.268178
     84 C28        -3.0940   -6.0690   -2.1720 c3        1 MOL     -0.388084
     85 O15        -3.0450   -3.7500   -2.4590 oh        1 MOL     -0.556393
     86 H35        -4.1720   -3.0020   -0.3260 hn        1 MOL      0.260016
     87 H36        -2.6670   -5.3570    0.4820 h1        1 MOL      0.062643
     88 H37        -1.4110   -4.8640   -1.7750 h1        1 MOL      0.012554
     89 H38        -3.8090   -3.3070   -2.0940 ho        1 MOL      0.380947
     90 H39        -2.9090   -6.9910   -1.6170 hc        1 MOL      0.109757
     91 H40        -4.1740   -5.9290   -2.1580 hc        1 MOL      0.109757
     92 H41        -2.8110   -6.1980   -3.2140 hc        1 MOL      0.109757
     93 N9         -0.4660   -4.0280    0.5810 n         1 MOL     -0.515454
     94 C29         0.7630   -3.3910    1.0380 c3        1 MOL      0.143609
     95 C30         1.8350   -3.6700   -0.0130 c         1 MOL      0.458859
     96 O16         2.1700   -4.7970   -0.2420 o         1 MOL     -0.524113
     97 C31         1.1130   -3.8200    2.4880 c3        1 MOL      0.134875
     98 C32         0.0250   -3.3670    3.4520 c3        1 MOL     -0.028720
     99 C33         2.3890   -3.2810    3.0830 c3        1 MOL     -0.219711
    100 C34        -0.3780   -1.9310    3.7180 c3        1 MOL     -0.023588
    101 H42        -0.4970   -5.0280    0.4370 hn        1 MOL      0.276296
    102 H43         0.6360   -2.3070    1.0460 h1        1 MOL     -0.053497
    103 H44         1.2460   -4.9070    2.4960 hc        1 MOL      0.017426
    104 H45         0.2010   -3.9790    4.3480 hc        1 MOL     -0.005847
    105 H46        -0.8240   -3.8700    2.9870 hc        1 MOL     -0.005847
    106 H47         2.4020   -3.3830    4.1730 hc        1 MOL      0.050915
    107 H48         3.2710   -3.7820    2.6860 hc        1 MOL      0.050915
    108 H49         2.4620   -2.1950    2.9630 hc        1 MOL      0.050915
    109 H50        -0.5170   -1.4190    2.7630 hc        1 MOL      0.028770
    110 H51        -1.3050   -1.8000    4.2680 hc        1 MOL      0.028770
    111 H52         0.4600   -1.5240    4.2950 hc        1 MOL      0.028770
    112 N10         2.3270   -2.5730   -0.6090 n         1 MOL     -0.303842
    113 C35         3.5470   -2.5660   -1.5300 c3        1 MOL      0.037713
    114 C36         4.7800   -2.3780   -0.6640 c         1 MOL      0.405351
    115 O17         4.7590   -1.8780    0.5370 o         1 MOL     -0.315988
    116 C37         3.4840   -1.4440   -2.4650 c3        1 MOL      0.308034
    117 C38         2.5660   -1.5260   -3.6470 c3        1 MOL     -0.269174
    118 O18         3.1860   -0.2220   -1.8540 oh        1 MOL     -0.670587
    119 H53         1.8450   -1.7550   -0.2620 hn        1 MOL      0.089265
    120 H54         3.7890   -3.4780   -2.0650 h1        1 MOL      0.075907
    121 H55         4.5140   -1.3060   -2.8020 h1        1 MOL     -0.001917
    122 H56         2.2930   -0.3160   -1.5050 ho        1 MOL      0.444773
    123 H57         3.0200   -2.1670   -4.4020 hc        1 MOL      0.065623
    124 H58         1.5620   -1.7950   -3.3140 hc        1 MOL      0.065623
    125 H59         2.4390   -0.5540   -4.1140 hc        1 MOL      0.065623
    126 N11         6.0030   -2.6120   -1.1990 n         1 MOL     -0.383359
    127 C39         7.2220   -2.2810   -0.3250 c3        1 MOL     -0.228897
    128 C40         7.3520   -0.7720    0.0750 c         1 MOL      0.451440
    129 O19         7.9720   -0.5260    1.1340 o         1 MOL     -0.500191
    130 C41         8.4530   -2.6950   -1.1680 c3        1 MOL      0.246793
    131 C42         8.3610   -4.1740   -1.6080 c3        1 MOL     -0.388947
    132 O20         8.4440   -1.9170   -2.3610 oh        1 MOL     -0.656346
    133 H60         6.0870   -2.8320   -2.1800 hn        1 MOL      0.284021
    134 H61         7.1260   -2.7960    0.6270 h1        1 MOL      0.206270
    135 H62         9.3280   -2.5060   -0.5590 h1        1 MOL      0.078876
    136 H63         9.1400   -2.2360   -2.9270 ho        1 MOL      0.432959
    137 H64         8.0220   -4.8850   -0.8640 hc        1 MOL      0.116492
    138 H65         7.7890   -4.3950   -2.5170 hc        1 MOL      0.116492
    139 H66         9.3430   -4.5320   -1.9340 hc        1 MOL      0.116492
    140 N12         6.7060    0.1820   -0.6160 n         1 MOL     -0.191332
    141 C43         6.5840    1.6160   -0.1830 c3        1 MOL     -0.190987
    142 C44         5.7770    1.6880    1.0830 c         1 MOL      0.542123
    143 O21         5.9210    2.6760    1.7540 o         1 MOL     -0.551423
    144 C45         5.9260    2.4700   -1.2790 c3        1 MOL     -0.276225
    145 C46         6.7280    2.6890   -2.5750 c3        1 MOL      0.125546
    146 C47         7.9140    3.6160   -2.3600 c3        1 MOL      0.086254
    147 C48         8.8480    3.6290   -3.5590 c3        1 MOL      0.082354
    148 N13        10.1770    4.2050   -3.2910 n4        1 MOL     -0.303576
    149 H67         6.3230   -0.0760   -1.5110 hn        1 MOL      0.287149
    150 H68         7.5600    2.0270    0.0260 h1        1 MOL      0.115120
    151 H69         5.6450    3.4310   -0.8380 hc        1 MOL      0.119080
    152 H70         4.9930    1.9930   -1.6180 hc        1 MOL      0.119080
    153 H71         6.1870    3.1140   -3.4150 hc        1 MOL     -0.019045
    154 H72         7.1190    1.7140   -2.8600 hc        1 MOL     -0.019045
    155 H73         8.5940    3.1780   -1.6330 hc        1 MOL      0.009991
    156 H74         7.6230    4.6250   -2.0950 hc        1 MOL      0.009991
    157 H75         8.3600    4.1980   -4.3540 hx        1 MOL      0.044847
    158 H76         9.0120    2.6080   -3.8900 hx        1 MOL      0.044847
    159 H77        10.4950    4.6520   -4.1340 hn        1 MOL      0.300494
    160 H78        10.1890    4.8760   -2.5360 hn        1 MOL      0.300494
    161 H79        10.8190    3.4700   -3.0600 hn        1 MOL      0.300494
    162 N14         4.9240    0.7370    1.4390 n         1 MOL     -0.195469
    163 C49         4.0200    0.8240    2.5890 c3        1 MOL     -0.150242
    164 C50         4.5860   -0.0240    3.7220 c         1 MOL      0.553730
    165 O22         4.3980    0.3040    4.8780 o         1 MOL     -0.533085
    166 C51         2.5440    0.6730    2.1900 c3        1 MOL      0.034585
    167 C52         2.0660    1.5940    1.0440 c3        1 MOL      0.210012
    168 C53         0.8080    1.0420    0.3000 c         1 MOL      0.501370
    169 O23         0.8840    0.0130   -0.4080 o         1 MOL     -0.539525
    170 O24        -0.3420    1.5570    0.4390 o         1 MOL     -0.539525
    171 H80         4.7980   -0.0300    0.7860 hn        1 MOL      0.087154
    172 H81         4.1260    1.8330    2.9760 h1        1 MOL      0.107071
    173 H82         1.9320    0.8000    3.0830 hc        1 MOL      0.034894
    174 H83         2.3810   -0.3780    1.9490 hc        1 MOL      0.034894
    175 H84         2.8920    1.7440    0.3550 hc        1 MOL     -0.047059
    176 H85         1.7590    2.5570    1.4570 hc        1 MOL     -0.047059
    177 N15         5.1690   -1.1920    3.3750 n         1 MOL     -0.173942
    178 C54         5.8660   -2.1350    4.2810 c3        1 MOL     -0.286863
    179 H86         6.7990   -1.6870    4.6220 h1        1 MOL      0.112976
    180 H87         5.2310   -2.3510    5.1400 h1        1 MOL      0.112976
    181 H88         6.0810   -3.0600    3.7470 h1        1 MOL      0.112976
    182 H89         5.2000   -1.4730    2.4080 hn        1 MOL      0.126339
    183 Ca1        -1.8310   -0.0270   -0.9760 Ca        1 MOL      1.706266
    184 O25        -0.4720    1.1490   -3.0530 oh        1 MOL     -0.790074
    185 H90        -1.3250    1.5380   -3.2120 ho        1 MOL      0.391998
    186 H91        -0.0710    1.0900   -3.9200 ho        1 MOL      0.391998
    187 O26        -0.8060   -2.1260   -2.2480 oh        1 MOL     -0.790074
    188 H92        -0.5740   -2.1620   -3.1830 ho        1 MOL      0.391998
    189 H93        -1.3890   -2.8700   -2.1210 ho        1 MOL      0.391998
@<TRIPOS>BOND
     1    1    2 1   
     2    1    4 1   
     3    1    5 1   
     4    1    6 1   
     5    2    3 2   
     6    2    7 1   
     7    7    8 1   
     8    7   15 1   
     9    8    9 1   
    10    8   11 1   
    11    8   16 1   
    12    9   10 2   
    13    9   19 1   
    14   11   12 1   
    15   11   17 1   
    16   11   18 1   
    17   12   13 1   
    18   12   14 1   
    19   19   20 1   
    20   19   28 1   
    21   20   21 1   
    22   20   23 1   
    23   20   29 1   
    24   21   22 2   
    25   21   41 1   
    26   23   24 1   
    27   23   30 1   
    28   23   31 1   
    29   24   25 1   
    30   24   32 1   
    31   24   33 1   
    32   25   26 1   
    33   25   34 1   
    34   25   35 1   
    35   26   27 1   
    36   26   36 1   
    37   26   37 1   
    38   27   38 1   
    39   27   39 1   
    40   27   40 1   
    41   41   42 1   
    42   41   49 1   
    43   42   43 1   
    44   42   45 1   
    45   42   50 1   
    46   43   44 2   
    47   43   53 1   
    48   45   46 1   
    49   45   51 1   
    50   45   52 1   
    51   46   47 1   
    52   46   48 1   
    53   53   54 1   
    54   53   57 1   
    55   54   55 1   
    56   54   58 1   
    57   54   59 1   
    58   55   56 2   
    59   55   60 1   
    60   60   61 1   
    61   60   68 1   
    62   61   62 1   
    63   61   64 1   
    64   61   69 1   
    65   62   63 2   
    66   62   72 1   
    67   64   65 1   
    68   64   70 1   
    69   64   71 1   
    70   65   66 1   
    71   65   67 1   
    72   72   73 1   
    73   72   76 1   
    74   73   74 1   
    75   73   77 1   
    76   73   78 1   
    77   74   75 2   
    78   74   79 1   
    79   79   80 1   
    80   79   86 1   
    81   80   81 1   
    82   80   83 1   
    83   80   87 1   
    84   81   82 2   
    85   81   93 1   
    86   83   84 1   
    87   83   85 1   
    88   83   88 1   
    89   84   90 1   
    90   84   91 1   
    91   84   92 1   
    92   85   89 1   
    93   93   94 1   
    94   93  101 1   
    95   94   95 1   
    96   94   97 1   
    97   94  102 1   
    98   95   96 2   
    99   95  112 1   
   100   97   98 1   
   101   97   99 1   
   102   97  103 1   
   103   98  100 1   
   104   98  104 1   
   105   98  105 1   
   106   99  106 1   
   107   99  107 1   
   108   99  108 1   
   109  100  109 1   
   110  100  110 1   
   111  100  111 1   
   112  112  113 1   
   113  112  119 1   
   114  113  114 1   
   115  113  116 1   
   116  113  120 1   
   117  114  115 2   
   118  114  126 1   
   119  116  117 1   
   120  116  118 1   
   121  116  121 1   
   122  117  123 1   
   123  117  124 1   
   124  117  125 1   
   125  118  122 1   
   126  126  127 1   
   127  126  133 1   
   128  127  128 1   
   129  127  130 1   
   130  127  134 1   
   131  128  129 2   
   132  128  140 1   
   133  130  131 1   
   134  130  132 1   
   135  130  135 1   
   136  131  137 1   
   137  131  138 1   
   138  131  139 1   
   139  132  136 1   
   140  140  141 1   
   141  140  149 1   
   142  141  142 1   
   143  141  144 1   
   144  141  150 1   
   145  142  143 2   
   146  142  162 1   
   147  144  145 1   
   148  144  151 1   
   149  144  152 1   
   150  145  146 1   
   151  145  153 1   
   152  145  154 1   
   153  146  147 1   
   154  146  155 1   
   155  146  156 1   
   156  147  148 1   
   157  147  157 1   
   158  147  158 1   
   159  148  159 1   
   160  148  160 1   
   161  148  161 1   
   162  162  163 1   
   163  162  171 1   
   164  163  164 1   
   165  163  166 1   
   166  163  172 1   
   167  164  165 2   
   168  164  177 1   
   169  166  167 1   
   170  166  173 1   
   171  166  174 1   
   172  167  168 1   
   173  167  175 1   
   174  167  176 1   
   175  168  169 1   
   176  168  170 1   
   177  177  178 1   
   178  177  182 1   
   179  178  179 1   
   180  178  180 1   
   181  178  181 1   
   182  184  185 1   
   183  184  186 1   
   184  187  188 1   
   185  187  189 1   
@<TRIPOS>SUBSTRUCTURE
     1 MOL         1 TEMP              0 ****  ****    0 ROOT
