@<TRIPOS>MOLECULE
MOL
  175   173     1     0     0
SMALL
resp


@<TRIPOS>ATOM
      1 C1          0.2380    3.1620    5.8150 c3        1 MOL     -0.441111
      2 C2         -0.2980    2.9860    4.3770 c         1 MOL      0.738588
      3 O1          0.4070    3.5110    3.5440 o         1 MOL     -0.577930
      4 H1          1.1600    2.5930    5.9310 hc        1 MOL      0.109543
      5 H2          0.4370    4.2170    6.0020 hc        1 MOL      0.109543
      6 H3         -0.5040    2.7990    6.5270 hc        1 MOL      0.109543
      7 N1         -1.3950    2.3060    4.0350 n         1 MOL     -0.587532
      8 C3         -1.9050    2.0780    2.6860 c3        1 MOL     -0.000580
      9 C4         -2.3820    3.4290    2.0670 c         1 MOL      0.535332
     10 O2         -3.2780    4.1140    2.5880 o         1 MOL     -0.559068
     11 C5         -2.9900    0.9530    2.8140 c3        1 MOL     -0.029391
     12 C6         -3.6650    0.3340    1.5990 c         1 MOL      0.413999
     13 O3         -3.4370    0.7020    0.4180 o         1 MOL     -0.594979
     14 O4         -4.5820   -0.5150    1.8400 o         1 MOL     -0.594979
     15 H4         -1.9480    1.7700    4.6870 hn        1 MOL      0.299017
     16 H5         -1.0780    1.6880    2.1020 h1        1 MOL      0.111206
     17 H6         -3.8330    1.3920    3.3530 hc        1 MOL      0.044712
     18 H7         -2.6660    0.1250    3.4590 hc        1 MOL      0.044712
     19 N2         -1.7610    3.7780    0.9210 n         1 MOL     -0.196517
     20 C7         -2.0140    5.0900    0.3190 c3        1 MOL      0.287643
     21 C8         -3.2880    5.2840   -0.5160 c         1 MOL      0.334406
     22 O5         -4.0330    6.2510   -0.3150 o         1 MOL     -0.543817
     23 C9         -0.7450    5.4760   -0.4210 c3        1 MOL     -0.552534
     24 H8         -0.9410    3.2360    0.6930 hn        1 MOL      0.152978
     25 H9         -2.1510    5.7020    1.2070 h1        1 MOL      0.014477
     26 H10        -0.0750    5.6550    0.4190 hc        1 MOL      0.139175
     27 H11        -0.3960    4.7080   -1.1130 hc        1 MOL      0.139175
     28 H12        -0.8570    6.3650   -1.0460 hc        1 MOL      0.139175
     29 N3         -3.5700    4.3260   -1.4080 n         1 MOL     -0.174635
     30 C10        -4.8510    4.1920   -2.1270 c3        1 MOL     -0.084550
     31 C11        -5.9120    3.4400   -1.2480 c         1 MOL      0.439808
     32 O6         -7.0880    3.4830   -1.5110 o         1 MOL     -0.515668
     33 C12        -4.6950    3.4910   -3.4530 c3        1 MOL     -0.043229
     34 C13        -4.0240    2.1270   -3.4830 c         1 MOL      0.650047
     35 O7         -4.0370    1.4220   -4.5040 o         1 MOL     -0.686393
     36 O8         -3.5740    1.5680   -2.4330 o         1 MOL     -0.686393
     37 H13        -2.9890    3.5000   -1.4630 hn        1 MOL      0.154609
     38 H14        -5.1650    5.2070   -2.3740 h1        1 MOL      0.116995
     39 H15        -4.1190    4.1740   -4.0800 hc        1 MOL      0.020522
     40 H16        -5.6560    3.4460   -3.9670 hc        1 MOL      0.020522
     41 N4         -5.4810    2.8430   -0.0700 n         1 MOL      0.008236
     42 C14        -6.3830    2.2210    0.9140 c3        1 MOL     -0.317871
     43 C15        -7.2360    1.0610    0.3950 c         1 MOL      0.594587
     44 O9         -8.4170    1.0210    0.6780 o         1 MOL     -0.580987
     45 H17        -4.5130    2.5910    0.0350 hn        1 MOL     -0.048111
     46 H18        -7.1320    2.9710    1.1740 h1        1 MOL      0.130708
     47 H19        -5.8500    1.8610    1.7990 h1        1 MOL      0.130708
     48 N5         -6.5530    0.2360   -0.3810 n         1 MOL     -0.281205
     49 C16        -7.0000   -0.9910   -0.9890 c3        1 MOL     -0.140909
     50 C17        -7.1340   -2.2380   -0.1420 c         1 MOL      0.494502
     51 O10        -7.9260   -3.1410   -0.5190 o         1 MOL     -0.566130
     52 C18        -6.2730   -1.2400   -2.3600 c3        1 MOL     -0.082001
     53 C19        -5.0110   -2.1300   -2.2000 c         1 MOL      0.371828
     54 N6         -4.9520   -3.2490   -2.8580 n         1 MOL     -0.658123
     55 O11        -4.0600   -1.7990   -1.4920 o         1 MOL     -0.305306
     56 H20        -5.5580    0.4230   -0.3020 hn        1 MOL      0.245723
     57 H21        -8.0250   -0.8340   -1.3350 h1        1 MOL      0.125792
     58 H22        -5.9570   -0.2690   -2.7550 hc        1 MOL      0.069236
     59 H23        -6.9890   -1.6540   -3.0650 hc        1 MOL      0.069236
     60 H24        -5.7080   -3.4640   -3.4940 hn        1 MOL      0.343165
     61 H25        -4.0650   -3.7120   -2.7150 hn        1 MOL      0.343165
     62 N7         -6.5440   -2.2460    1.0650 n         1 MOL     -0.263779
     63 C20        -6.4220   -3.3780    1.9650 c3        1 MOL     -0.027313
     64 C21        -5.0940   -4.1530    1.8010 c         1 MOL      0.488399
     65 O12        -4.9700   -5.2220    2.4000 o         1 MOL     -0.587808
     66 H26        -5.8880   -1.5090    1.2380 hn        1 MOL      0.203640
     67 H27        -7.2670   -4.0740    1.9350 h1        1 MOL      0.062412
     68 H28        -6.4070   -2.9720    2.9770 h1        1 MOL      0.062412
     69 N8         -4.0370   -3.6030    1.1740 n         1 MOL     -0.060666
     70 C22        -2.6850   -4.1960    1.1970 c3        1 MOL     -0.397314
     71 C23        -1.6370   -3.0890    1.1400 c         1 MOL      0.703209
     72 O13        -1.7410   -2.0960    0.3470 o         1 MOL     -0.438428
     73 C24        -2.3650   -5.1290   -0.0010 c3        1 MOL      0.360247
     74 C25        -3.0530   -6.4360    0.1240 c3        1 MOL     -0.418148
     75 O14        -2.8070   -4.6880   -1.2700 oh        1 MOL     -0.632017
     76 H29        -4.1950   -2.6470    0.8910 hn        1 MOL      0.098649
     77 H30        -2.5750   -4.7270    2.1500 h1        1 MOL      0.151184
     78 H31        -1.2850   -5.2380   -0.0820 h1        1 MOL      0.039289
     79 H32        -2.1350   -4.1010   -1.6280 ho        1 MOL      0.433044
     80 H33        -2.8810   -6.9690    1.0570 hc        1 MOL      0.108238
     81 H34        -4.1340   -6.2420    0.1270 hc        1 MOL      0.108238
     82 H35        -2.8030   -7.1110   -0.6910 hc        1 MOL      0.108238
     83 N9         -0.4970   -3.4020    1.7530 n         1 MOL     -0.634460
     84 C26         0.7590   -2.6800    1.6560 c3        1 MOL     -0.123171
     85 C27         1.4080   -2.8750    0.2090 c         1 MOL      0.646083
     86 O15         1.6320   -4.0660   -0.0620 o         1 MOL     -0.595435
     87 C28         1.7580   -3.0560    2.8160 c3        1 MOL      0.388632
     88 C29         1.0430   -2.5720    4.0900 c3        1 MOL      0.023297
     89 C30         3.0450   -2.3280    2.6600 c3        1 MOL     -0.399333
     90 C31         1.6770   -3.1570    5.3640 c3        1 MOL     -0.028658
     91 H36        -0.5280   -4.2500    2.3030 hn        1 MOL      0.326087
     92 H37         0.4540   -1.6320    1.6940 h1        1 MOL      0.071372
     93 H38         1.9280   -4.1320    2.8360 hc        1 MOL     -0.049972
     94 H39         0.0220   -2.9520    4.0840 hc        1 MOL     -0.004592
     95 H40         1.1460   -1.4810    4.1570 hc        1 MOL     -0.004592
     96 H41         2.8700   -1.2490    2.6320 hc        1 MOL      0.072277
     97 H42         3.6410   -2.5670    3.5430 hc        1 MOL      0.072277
     98 H43         3.5310   -2.7210    1.7670 hc        1 MOL      0.072277
     99 H44         1.2150   -2.7380    6.2520 hc        1 MOL     -0.012707
    100 H45         1.4550   -4.2240    5.3030 hc        1 MOL     -0.012707
    101 H46         2.7560   -3.0040    5.3930 hc        1 MOL     -0.012707
    102 N10         2.0030   -1.7970   -0.4310 n         1 MOL     -0.039895
    103 C32         3.0410   -1.8330   -1.4780 c3        1 MOL      0.016313
    104 C33         4.4500   -1.5460   -0.9260 c         1 MOL      0.396125
    105 O16         4.5470   -0.9330    0.1500 o         1 MOL     -0.238113
    106 C34         2.5600   -0.9290   -2.5820 c3        1 MOL     -0.218115
    107 C35         1.2060   -1.3260   -3.1470 c         1 MOL      0.722868
    108 O17         0.3280   -0.4890   -3.0820 o         1 MOL     -0.689726
    109 O18         1.0590   -2.4760   -3.7380 o         1 MOL     -0.689726
    110 H47         1.6480   -0.8900   -0.1580 hn        1 MOL     -0.202318
    111 H48         3.0610   -2.8030   -1.9600 h1        1 MOL      0.038399
    112 H49         3.2160   -0.7900   -3.4420 hc        1 MOL      0.069408
    113 H50         2.5480    0.0460   -2.0900 hc        1 MOL      0.069408
    114 N11         5.4670   -1.6740   -1.7100 n         1 MOL     -0.575264
    115 C36         6.7710   -1.2880   -1.1270 c3        1 MOL      0.209829
    116 C37         6.9900    0.1850   -0.7140 c         1 MOL      0.286014
    117 O19         7.5150    0.3980    0.3780 o         1 MOL     -0.437141
    118 C38         7.8890   -1.8580   -2.1130 c3        1 MOL     -0.314714
    119 C39         9.3140   -1.4650   -1.6540 ca        1 MOL      0.199750
    120 C40         9.8500   -1.9380   -0.4540 ca        1 MOL     -0.223396
    121 C41        10.1100   -0.6270   -2.3930 ca        1 MOL     -0.223396
    122 C42        11.0900   -1.5290    0.0270 ca        1 MOL     -0.057620
    123 C43        11.4110   -0.2170   -1.9820 ca        1 MOL     -0.057620
    124 C44        11.9260   -0.7070   -0.7750 ca        1 MOL     -0.170432
    125 H51         5.3400   -1.7820   -2.7120 hn        1 MOL      0.362716
    126 H52         6.7680   -1.7690   -0.1480 h1        1 MOL      0.119855
    127 H53         7.6700   -1.5950   -3.1520 hc        1 MOL      0.100567
    128 H54         7.9250   -2.9500   -2.0820 hc        1 MOL      0.100567
    129 H55         9.2960   -2.4950    0.2820 ha        1 MOL      0.122417
    130 H56         9.7720   -0.1640   -3.3180 ha        1 MOL      0.122417
    131 H57        11.3540   -1.7770    1.0410 ha        1 MOL      0.101716
    132 H58        12.0000    0.3360   -2.7050 ha        1 MOL      0.101716
    133 H59        12.9100   -0.4040   -0.4620 ha        1 MOL      0.112435
    134 N12         6.4490    1.2010   -1.4190 n         1 MOL      0.014334
    135 C45         6.6480    2.5880   -0.9390 c3        1 MOL      0.092148
    136 C46         5.6800    2.8060    0.2880 c         1 MOL      0.264026
    137 O20         5.7920    3.6870    1.1340 o         1 MOL     -0.483372
    138 C47         6.3570    3.5030   -2.0950 c3        1 MOL     -0.180937
    139 C48         5.6170    2.5940   -3.1080 c3        1 MOL      0.069486
    140 C49         6.1640    1.2250   -2.8390 c3        1 MOL      0.044809
    141 H60         7.6920    2.6910   -0.6700 h1        1 MOL      0.052257
    142 H61         5.7250    4.3770   -1.9150 hc        1 MOL      0.066273
    143 H62         7.3170    3.8060   -2.5180 hc        1 MOL      0.066273
    144 H63         4.5610    2.5360   -2.8580 hc        1 MOL      0.010234
    145 H64         5.7140    2.9330   -4.1430 hc        1 MOL      0.010234
    146 H65         5.3940    0.5090   -3.1310 h1        1 MOL     -0.025469
    147 H66         7.0930    1.1300   -3.3980 h1        1 MOL     -0.025469
    148 N13         4.6460    1.9440    0.4620 n         1 MOL     -0.071669
    149 C50         3.8940    1.9060    1.6770 c3        1 MOL     -0.107508
    150 C51         4.5660    1.2310    2.8810 c         1 MOL      0.438703
    151 O21         4.5060    1.5990    4.0490 o         1 MOL     -0.565153
    152 C52         2.5320    1.2640    1.4130 c3        1 MOL     -0.095250
    153 C53         1.6100    2.0500    0.4940 c3        1 MOL      0.051058
    154 C54         0.3330    1.3500   -0.1110 c         1 MOL      0.735251
    155 O22         0.1200    0.1360    0.0570 o         1 MOL     -0.745866
    156 O23        -0.4080    2.0510   -0.7370 o         1 MOL     -0.745866
    157 H67         4.5140    1.1670   -0.1770 hn        1 MOL      0.105744
    158 H68         3.7000    2.9180    2.0270 h1        1 MOL      0.126229
    159 H69         1.9400    1.0570    2.2990 hc        1 MOL      0.093952
    160 H70         2.6630    0.3340    0.8550 hc        1 MOL      0.093952
    161 H71         2.1810    2.3290   -0.3970 hc        1 MOL     -0.010840
    162 H72         1.2440    2.9800    0.9440 hc        1 MOL     -0.010840
    163 N14         5.4460    0.2780    2.5890 n         1 MOL      0.128310
    164 C55         6.3760   -0.4130    3.5070 c3        1 MOL     -0.208965
    165 H73         5.8830   -0.5790    4.4650 h1        1 MOL      0.077406
    166 H74         6.6650   -1.3720    3.0770 h1        1 MOL      0.077406
    167 H75         7.2640    0.2010    3.6560 h1        1 MOL      0.077406
    168 H76         5.4820   -0.0050    1.6250 hn        1 MOL     -0.169530
    169 Ca1        -1.8780   -0.1110   -1.4910 Ca        1 MOL      1.708795
    170 O24        -1.5530   -2.7560   -2.7140 oh        1 MOL     -0.904931
    171 H77        -0.7460   -2.5200   -3.1630 ho        1 MOL      0.409727
    172 H78        -2.2430   -2.6130   -3.3620 ho        1 MOL      0.409727
    173 O25        -2.4450   -0.6210   -4.0400 oh        1 MOL     -0.904931
    174 H79        -1.7370   -0.5950   -4.6860 ho        1 MOL      0.409727
    175 H80        -3.0480    0.0770   -4.3060 ho        1 MOL      0.409727
@<TRIPOS>BOND
     1    1    2 1   
     2    1    4 1   
     3    1    5 1   
     4    1    6 1   
     5    2    3 2   
     6    2    7 1   
     7    7    8 1   
     8    7   15 1   
     9    8    9 1   
    10    8   11 1   
    11    8   16 1   
    12    9   10 2   
    13    9   19 1   
    14   11   12 1   
    15   11   17 1   
    16   11   18 1   
    17   12   13 1   
    18   12   14 1   
    19   19   20 1   
    20   19   24 1   
    21   20   21 1   
    22   20   23 1   
    23   20   25 1   
    24   21   22 2   
    25   21   29 1   
    26   23   26 1   
    27   23   27 1   
    28   23   28 1   
    29   29   30 1   
    30   29   37 1   
    31   30   31 1   
    32   30   33 1   
    33   30   38 1   
    34   31   32 2   
    35   31   41 1   
    36   33   34 1   
    37   33   39 1   
    38   33   40 1   
    39   34   35 1   
    40   34   36 1   
    41   41   42 1   
    42   41   45 1   
    43   42   43 1   
    44   42   46 1   
    45   42   47 1   
    46   43   44 2   
    47   43   48 1   
    48   48   49 1   
    49   48   56 1   
    50   49   50 1   
    51   49   52 1   
    52   49   57 1   
    53   50   51 2   
    54   50   62 1   
    55   52   53 1   
    56   52   58 1   
    57   52   59 1   
    58   53   54 1   
    59   53   55 2   
    60   54   60 1   
    61   54   61 1   
    62   62   63 1   
    63   62   66 1   
    64   63   64 1   
    65   63   67 1   
    66   63   68 1   
    67   64   65 2   
    68   64   69 1   
    69   69   70 1   
    70   69   76 1   
    71   70   71 1   
    72   70   73 1   
    73   70   77 1   
    74   71   72 2   
    75   71   83 1   
    76   73   74 1   
    77   73   75 1   
    78   73   78 1   
    79   74   80 1   
    80   74   81 1   
    81   74   82 1   
    82   75   79 1   
    83   83   84 1   
    84   83   91 1   
    85   84   85 1   
    86   84   87 1   
    87   84   92 1   
    88   85   86 2   
    89   85  102 1   
    90   87   88 1   
    91   87   89 1   
    92   87   93 1   
    93   88   90 1   
    94   88   94 1   
    95   88   95 1   
    96   89   96 1   
    97   89   97 1   
    98   89   98 1   
    99   90   99 1   
   100   90  100 1   
   101   90  101 1   
   102  102  103 1   
   103  102  110 1   
   104  103  104 1   
   105  103  106 1   
   106  103  111 1   
   107  104  105 2   
   108  104  114 1   
   109  106  107 1   
   110  106  112 1   
   111  106  113 1   
   112  107  108 1   
   113  107  109 1   
   114  114  115 1   
   115  114  125 1   
   116  115  116 1   
   117  115  118 1   
   118  115  126 1   
   119  116  117 2   
   120  116  134 1   
   121  118  119 1   
   122  118  127 1   
   123  118  128 1   
   124  119  120 ar  
   125  119  121 ar  
   126  120  122 ar  
   127  120  129 1   
   128  121  123 ar  
   129  121  130 1   
   130  122  124 ar  
   131  122  131 1   
   132  123  124 ar  
   133  123  132 1   
   134  124  133 1   
   135  134  135 1   
   136  134  140 1   
   137  135  136 1   
   138  135  138 1   
   139  135  141 1   
   140  136  137 2   
   141  136  148 1   
   142  138  139 1   
   143  138  142 1   
   144  138  143 1   
   145  139  140 1   
   146  139  144 1   
   147  139  145 1   
   148  140  146 1   
   149  140  147 1   
   150  148  149 1   
   151  148  157 1   
   152  149  150 1   
   153  149  152 1   
   154  149  158 1   
   155  150  151 2   
   156  150  163 1   
   157  152  153 1   
   158  152  159 1   
   159  152  160 1   
   160  153  154 1   
   161  153  161 1   
   162  153  162 1   
   163  154  155 1   
   164  154  156 1   
   165  163  164 1   
   166  163  168 1   
   167  164  165 1   
   168  164  166 1   
   169  164  167 1   
   170  170  171 1   
   171  170  172 1   
   172  173  174 1   
   173  173  175 1   
@<TRIPOS>SUBSTRUCTURE
     1 MOL         1 TEMP              0 ****  ****    0 ROOT
