@<TRIPOS>MOLECULE
MOL
  175   173     1     0     0
SMALL
resp


@<TRIPOS>ATOM
      1 C1         -0.7750    3.3350    5.7880 c3        1 MOL     -0.344825
      2 C2         -0.9190    2.9310    4.3300 c         1 MOL      0.807726
      3 O1         -0.0350    3.2060    3.5100 o         1 MOL     -0.636221
      4 H1         -0.0210    2.7090    6.2650 hc        1 MOL      0.078380
      5 H2         -0.4700    4.3800    5.8480 hc        1 MOL      0.078380
      6 H3         -1.7300    3.2050    6.2980 hc        1 MOL      0.078380
      7 N1         -2.0430    2.3240    3.9920 n         1 MOL     -0.745019
      8 C3         -2.4220    2.0760    2.5670 c3        1 MOL      0.325633
      9 C4         -2.8390    3.3810    1.9110 c         1 MOL      0.555517
     10 O2         -3.8020    3.9830    2.4280 o         1 MOL     -0.610535
     11 C5         -3.6420    1.0790    2.6110 c3        1 MOL     -0.163083
     12 C6         -4.1490    0.8280    1.2010 c         1 MOL      0.746800
     13 O3         -5.2020    0.1650    1.0650 o         1 MOL     -0.670094
     14 O4         -3.5470    1.2160    0.1400 o         1 MOL     -0.670094
     15 H4         -2.7730    2.2040    4.6830 hn        1 MOL      0.358816
     16 H5         -1.5450    1.7720    1.9970 h1        1 MOL     -0.094867
     17 H6         -4.3570    1.5400    3.2930 hc        1 MOL      0.027687
     18 H7         -3.4400    0.1420    3.1410 hc        1 MOL      0.027687
     19 N2         -2.2120    3.8060    0.7870 n         1 MOL     -0.293484
     20 C7         -2.3690    5.0710    0.0410 c3        1 MOL     -0.001842
     21 C8         -3.4190    5.0470   -1.1270 c         1 MOL      0.351971
     22 O5         -3.6890    6.0210   -1.8460 o         1 MOL     -0.541581
     23 C9         -1.0590    5.3830   -0.6280 c3        1 MOL     -0.260100
     24 H8         -1.5590    3.1450    0.3890 hn        1 MOL      0.264181
     25 H9         -2.4810    5.9720    0.6420 h1        1 MOL      0.087639
     26 H10        -1.0850    6.2470   -1.3020 hc        1 MOL      0.087058
     27 H11        -0.2780    5.4550    0.1280 hc        1 MOL      0.087058
     28 H12        -0.6880    4.6680   -1.3610 hc        1 MOL      0.087058
     29 N3         -3.9860    3.8680   -1.3720 n         1 MOL     -0.011799
     30 C10        -4.9760    3.7140   -2.4400 c3        1 MOL     -0.094943
     31 C11        -6.2990    3.0870   -1.9560 c         1 MOL      0.480071
     32 O6         -7.3170    3.1380   -2.6210 o         1 MOL     -0.533285
     33 C12        -4.3860    2.8980   -3.6060 c3        1 MOL      0.060755
     34 C13        -3.4420    1.7940   -3.1910 c         1 MOL      0.752905
     35 O7         -2.2360    2.0480   -3.0190 o         1 MOL     -0.740845
     36 O8         -3.7600    0.5660   -3.2760 o         1 MOL     -0.740845
     37 H13        -3.7090    3.1420   -0.7180 hn        1 MOL     -0.025435
     38 H14        -5.3980    4.6760   -2.7120 h1        1 MOL      0.087838
     39 H15        -3.8850    3.5060   -4.3540 hc        1 MOL     -0.015329
     40 H16        -5.1690    2.4200   -4.1930 hc        1 MOL     -0.015329
     41 N4         -6.2220    2.3720   -0.7980 n         1 MOL     -0.340539
     42 C14        -7.4930    1.7170   -0.3590 c3        1 MOL     -0.108788
     43 C15        -7.8550    0.3230   -0.9860 c         1 MOL      0.481486
     44 O9         -9.0010   -0.0710   -0.9420 o         1 MOL     -0.577352
     45 H17        -5.3380    2.3890   -0.3110 hn        1 MOL      0.241210
     46 H18        -8.3300    2.3620   -0.6240 h1        1 MOL      0.092371
     47 H19        -7.5490    1.6560    0.7330 h1        1 MOL      0.092371
     48 N5         -6.8720   -0.3810   -1.5320 n         1 MOL     -0.155803
     49 C16        -6.9800   -1.7770   -1.8830 c3        1 MOL     -0.019554
     50 C17        -7.0440   -2.6930   -0.6360 c         1 MOL      0.426518
     51 O10        -7.5300   -3.8270   -0.7140 o         1 MOL     -0.572442
     52 C18        -5.8040   -2.1500   -2.7480 c3        1 MOL     -0.045399
     53 C19        -4.5710   -2.7070   -1.9730 c         1 MOL      0.440597
     54 N6         -4.2540   -3.9390   -2.3630 n         1 MOL     -0.637613
     55 O11        -3.9840   -1.9810   -1.1520 o         1 MOL     -0.547496
     56 H20        -6.0320    0.1690   -1.6420 hn        1 MOL      0.105974
     57 H21        -7.9170   -1.9320   -2.4090 h1        1 MOL      0.095573
     58 H22        -5.4740   -1.3140   -3.3690 hc        1 MOL      0.037862
     59 H23        -6.3140   -2.8080   -3.4390 hc        1 MOL      0.037862
     60 H24        -4.8230   -4.4160   -3.0490 hn        1 MOL      0.337748
     61 H25        -3.3880   -4.3260   -2.0350 hn        1 MOL      0.337748
     62 N7         -6.5820   -2.2400    0.5500 n         1 MOL     -0.144081
     63 C20        -6.4600   -3.0070    1.8330 c3        1 MOL     -0.099005
     64 C21        -5.0480   -3.1690    2.4610 c         1 MOL      0.452601
     65 O12        -4.9370   -3.5800    3.6130 o         1 MOL     -0.565311
     66 H26        -6.2400   -1.2860    0.5570 hn        1 MOL      0.153140
     67 H27        -6.9180   -3.9760    1.6370 h1        1 MOL      0.082777
     68 H28        -7.0670   -2.5110    2.5940 h1        1 MOL      0.082777
     69 N8         -3.9430   -2.9790    1.7260 n         1 MOL     -0.208301
     70 C22        -2.5900   -3.3470    2.0980 c3        1 MOL      0.089385
     71 C23        -1.6020   -2.2840    1.6460 c         1 MOL      0.393581
     72 O13        -1.8580   -1.3270    0.9230 o         1 MOL     -0.506997
     73 C24        -2.2390   -4.8000    1.6100 c3        1 MOL      0.136489
     74 C25        -3.2660   -5.8690    2.3150 c3        1 MOL     -0.410363
     75 O14        -2.4520   -4.8740    0.2220 oh        1 MOL     -0.633852
     76 H29        -4.1140   -2.7790    0.7460 hn        1 MOL      0.307194
     77 H30        -2.4790   -3.4210    3.1880 h1        1 MOL      0.057237
     78 H31        -1.2160   -4.9980    1.9280 h1        1 MOL      0.067459
     79 H32        -2.2610   -5.7990    0.0390 ho        1 MOL      0.431701
     80 H33        -3.3280   -5.5070    3.3380 hc        1 MOL      0.114330
     81 H34        -4.3090   -5.8190    1.9980 hc        1 MOL      0.114330
     82 H35        -2.8640   -6.8740    2.2880 hc        1 MOL      0.114330
     83 N9         -0.3550   -2.5720    2.0310 n         1 MOL     -0.283556
     84 C26         0.8930   -1.7670    1.7990 c3        1 MOL     -0.208049
     85 C27         1.8620   -2.4880    0.9410 c         1 MOL      0.535997
     86 O15         2.3800   -3.5060    1.4310 o         1 MOL     -0.579762
     87 C28         1.5030   -1.0940    3.0830 c3        1 MOL      0.340031
     88 C29         2.2150   -1.9940    4.0220 c3        1 MOL     -0.052669
     89 C30         0.4270   -0.2060    3.7190 c3        1 MOL     -0.517864
     90 C31         2.7080   -1.3530    5.3270 c3        1 MOL     -0.152348
     91 H36        -0.1590   -3.4230    2.5540 hn        1 MOL      0.243616
     92 H37         0.6500   -0.8560    1.2540 h1        1 MOL      0.033996
     93 H38         2.1860   -0.3310    2.7320 hc        1 MOL     -0.140067
     94 H39         3.1050   -2.3820    3.5220 hc        1 MOL      0.016952
     95 H40         1.5780   -2.8330    4.2830 hc        1 MOL      0.016952
     96 H41        -0.3880   -0.8660    4.0220 hc        1 MOL      0.136554
     97 H42         0.8340    0.3580    4.5610 hc        1 MOL      0.136554
     98 H43         0.0090    0.4470    2.9540 hc        1 MOL      0.136554
     99 H44         3.4400   -0.5560    5.1470 hc        1 MOL      0.030873
    100 H45         1.8580   -0.9210    5.8590 hc        1 MOL      0.030873
    101 H46         3.1830   -2.1520    5.8930 hc        1 MOL      0.030873
    102 N10         2.1160   -2.0230   -0.3160 n         1 MOL     -0.208332
    103 C32         3.3050   -2.4170   -1.1220 c3        1 MOL     -0.340969
    104 C33         4.5550   -1.7350   -0.7060 c         1 MOL      0.747143
    105 O16         4.4990   -0.8450    0.1490 o         1 MOL     -0.465970
    106 C34         3.1180   -2.2150   -2.6070 c3        1 MOL     -0.069481
    107 C35         1.7490   -2.7170   -3.0720 c         1 MOL      0.662232
    108 O17         1.1840   -3.7610   -2.5800 o         1 MOL     -0.663430
    109 O18         1.2240   -2.0620   -3.9970 o         1 MOL     -0.663430
    110 H47         1.5510   -1.2590   -0.6660 hn        1 MOL      0.288648
    111 H48         3.5840   -3.4630   -0.9510 h1        1 MOL      0.120936
    112 H49         3.8410   -2.7210   -3.2470 hc        1 MOL      0.038325
    113 H50         3.2650   -1.1720   -2.8800 hc        1 MOL      0.038325
    114 N11         5.7300   -2.0230   -1.2640 n         1 MOL     -0.634601
    115 C36         7.0290   -1.5270   -0.8450 c3        1 MOL      0.145820
    116 C37         7.1010   -0.0380   -0.6750 c         1 MOL      0.372246
    117 O19         7.7360    0.3480    0.3130 o         1 MOL     -0.495052
    118 C38         8.0750   -2.0080   -1.9060 c3        1 MOL     -0.043379
    119 C39         9.5090   -1.5080   -1.5930 ca        1 MOL     -0.101613
    120 C40        10.2650   -2.0600   -0.5620 ca        1 MOL     -0.026646
    121 C41        10.1050   -0.3470   -2.2340 ca        1 MOL     -0.026646
    122 C42        11.5570   -1.6060   -0.2820 ca        1 MOL     -0.213531
    123 C43        11.4570    0.1010   -1.9920 ca        1 MOL     -0.213531
    124 C44        12.1390   -0.5320   -0.9830 ca        1 MOL      0.009477
    125 H51         5.8590   -2.8900   -1.7740 hn        1 MOL      0.308590
    126 H52         7.2590   -2.0600    0.0750 h1        1 MOL      0.096098
    127 H53         7.8800   -1.7870   -2.9590 hc        1 MOL      0.047486
    128 H54         8.0520   -3.0860   -1.8590 hc        1 MOL      0.047486
    129 H55         9.8530   -2.8870    0.0080 ha        1 MOL      0.074663
    130 H56         9.4090    0.1890   -2.8530 ha        1 MOL      0.074663
    131 H57        12.0930   -2.1040    0.5020 ha        1 MOL      0.130121
    132 H58        11.8300    0.9700   -2.5050 ha        1 MOL      0.130121
    133 H59        13.1380   -0.2250   -0.7220 ha        1 MOL      0.071749
    134 N12         6.6070    0.8900   -1.5390 n         1 MOL     -0.061397
    135 C45         6.6210    2.3130   -1.2760 c3        1 MOL      0.000820
    136 C46         5.8580    2.7510   -0.0390 c         1 MOL      0.257077
    137 O20         6.3200    3.6650    0.7300 o         1 MOL     -0.490615
    138 C47         6.0370    2.9930   -2.5520 c3        1 MOL     -0.112493
    139 C48         5.1480    1.9050   -3.1560 c3        1 MOL      0.010456
    140 C49         5.8950    0.6350   -2.7660 c3        1 MOL     -0.105347
    141 H60         7.6680    2.6220   -1.1500 h1        1 MOL      0.084656
    142 H61         5.4500    3.8940   -2.3710 hc        1 MOL      0.056422
    143 H62         6.9170    3.2230   -3.1570 hc        1 MOL      0.056422
    144 H63         4.1680    1.9670   -2.7010 hc        1 MOL      0.026172
    145 H64         5.2100    1.9590   -4.2460 hc        1 MOL      0.026172
    146 H65         5.1710   -0.1690   -2.8020 h1        1 MOL      0.054574
    147 H66         6.4900    0.3530   -3.6430 h1        1 MOL      0.054574
    148 N13         4.7020    2.0800    0.2510 n         1 MOL     -0.066008
    149 C50         3.7790    2.4730    1.3470 c3        1 MOL     -0.226557
    150 C51         4.4170    1.9970    2.7740 c         1 MOL      0.422584
    151 O21         4.5780    2.7060    3.7530 o         1 MOL     -0.544940
    152 C52         2.3820    1.8760    1.0900 c3        1 MOL     -0.004812
    153 C53         1.6920    2.3870   -0.2000 c3        1 MOL     -0.088933
    154 C54         0.5390    1.4760   -0.6140 c         1 MOL      0.615308
    155 O22         0.8360    0.3990   -1.2350 o         1 MOL     -0.663019
    156 O23        -0.6340    1.6570   -0.2860 o         1 MOL     -0.663019
    157 H67         4.4260    1.3890   -0.4230 hn        1 MOL      0.221475
    158 H68         3.6340    3.5530    1.2720 h1        1 MOL      0.127881
    159 H69         1.7980    2.0800    1.9840 hc        1 MOL      0.138773
    160 H70         2.4840    0.8090    0.8920 hc        1 MOL      0.138773
    161 H71         2.3970    2.3290   -1.0300 hc        1 MOL      0.010996
    162 H72         1.4280    3.4460   -0.1830 hc        1 MOL      0.010996
    163 N14         5.0000    0.8020    2.7810 n         1 MOL      0.090198
    164 C55         5.9270    0.2660    3.7740 c3        1 MOL     -0.122987
    165 H73         6.6010   -0.4440    3.2960 h1        1 MOL      0.048900
    166 H74         6.5060    1.0810    4.2080 h1        1 MOL      0.048900
    167 H75         5.3650   -0.2400    4.5610 h1        1 MOL      0.048900
    168 H76         4.9250    0.2600    1.9260 hn        1 MOL      0.040346
    169 Ca1        -2.0000   -0.1800   -1.4010 Ca        1 MOL      1.725666
    170 O24        -1.3140   -1.4380   -3.7030 oh        1 MOL     -0.814827
    171 H77        -0.4120   -1.7100   -3.9080 ho        1 MOL      0.373994
    172 H78        -1.8600   -2.1460   -4.0500 ho        1 MOL      0.373994
    173 O25        -0.9030   -2.8760   -1.2750 oh        1 MOL     -0.814827
    174 H79        -0.1210   -3.1200   -1.7620 ho        1 MOL      0.373994
    175 H80        -1.2060   -3.6930   -0.8810 ho        1 MOL      0.373994
@<TRIPOS>BOND
     1    1    2 1   
     2    1    4 1   
     3    1    5 1   
     4    1    6 1   
     5    2    3 2   
     6    2    7 1   
     7    7    8 1   
     8    7   15 1   
     9    8    9 1   
    10    8   11 1   
    11    8   16 1   
    12    9   10 2   
    13    9   19 1   
    14   11   12 1   
    15   11   17 1   
    16   11   18 1   
    17   12   13 1   
    18   12   14 1   
    19   19   20 1   
    20   19   24 1   
    21   20   21 1   
    22   20   23 1   
    23   20   25 1   
    24   21   22 2   
    25   21   29 1   
    26   23   26 1   
    27   23   27 1   
    28   23   28 1   
    29   29   30 1   
    30   29   37 1   
    31   30   31 1   
    32   30   33 1   
    33   30   38 1   
    34   31   32 2   
    35   31   41 1   
    36   33   34 1   
    37   33   39 1   
    38   33   40 1   
    39   34   35 1   
    40   34   36 1   
    41   41   42 1   
    42   41   45 1   
    43   42   43 1   
    44   42   46 1   
    45   42   47 1   
    46   43   44 2   
    47   43   48 1   
    48   48   49 1   
    49   48   56 1   
    50   49   50 1   
    51   49   52 1   
    52   49   57 1   
    53   50   51 2   
    54   50   62 1   
    55   52   53 1   
    56   52   58 1   
    57   52   59 1   
    58   53   54 1   
    59   53   55 2   
    60   54   60 1   
    61   54   61 1   
    62   62   63 1   
    63   62   66 1   
    64   63   64 1   
    65   63   67 1   
    66   63   68 1   
    67   64   65 2   
    68   64   69 1   
    69   69   70 1   
    70   69   76 1   
    71   70   71 1   
    72   70   73 1   
    73   70   77 1   
    74   71   72 2   
    75   71   83 1   
    76   73   74 1   
    77   73   75 1   
    78   73   78 1   
    79   74   80 1   
    80   74   81 1   
    81   74   82 1   
    82   75   79 1   
    83   83   84 1   
    84   83   91 1   
    85   84   85 1   
    86   84   87 1   
    87   84   92 1   
    88   85   86 2   
    89   85  102 1   
    90   87   88 1   
    91   87   89 1   
    92   87   93 1   
    93   88   90 1   
    94   88   94 1   
    95   88   95 1   
    96   89   96 1   
    97   89   97 1   
    98   89   98 1   
    99   90   99 1   
   100   90  100 1   
   101   90  101 1   
   102  102  103 1   
   103  102  110 1   
   104  103  104 1   
   105  103  106 1   
   106  103  111 1   
   107  104  105 2   
   108  104  114 1   
   109  106  107 1   
   110  106  112 1   
   111  106  113 1   
   112  107  108 1   
   113  107  109 1   
   114  114  115 1   
   115  114  125 1   
   116  115  116 1   
   117  115  118 1   
   118  115  126 1   
   119  116  117 2   
   120  116  134 1   
   121  118  119 1   
   122  118  127 1   
   123  118  128 1   
   124  119  120 ar  
   125  119  121 ar  
   126  120  122 ar  
   127  120  129 1   
   128  121  123 ar  
   129  121  130 1   
   130  122  124 ar  
   131  122  131 1   
   132  123  124 ar  
   133  123  132 1   
   134  124  133 1   
   135  134  135 1   
   136  134  140 1   
   137  135  136 1   
   138  135  138 1   
   139  135  141 1   
   140  136  137 2   
   141  136  148 1   
   142  138  139 1   
   143  138  142 1   
   144  138  143 1   
   145  139  140 1   
   146  139  144 1   
   147  139  145 1   
   148  140  146 1   
   149  140  147 1   
   150  148  149 1   
   151  148  157 1   
   152  149  150 1   
   153  149  152 1   
   154  149  158 1   
   155  150  151 2   
   156  150  163 1   
   157  152  153 1   
   158  152  159 1   
   159  152  160 1   
   160  153  154 1   
   161  153  161 1   
   162  153  162 1   
   163  154  155 1   
   164  154  156 1   
   165  163  164 1   
   166  163  168 1   
   167  164  165 1   
   168  164  166 1   
   169  164  167 1   
   170  170  171 1   
   171  170  172 1   
   172  173  174 1   
   173  173  175 1   
@<TRIPOS>SUBSTRUCTURE
     1 MOL         1 TEMP              0 ****  ****    0 ROOT
