@<TRIPOS>MOLECULE
MOL
  179   176     1     0     0
SMALL
resp


@<TRIPOS>ATOM
      1 C1          1.8940    4.0820    3.4290 c3        1 MOL     -0.474652
      2 C2          0.8790    3.8040    2.3200 c         1 MOL      0.760944
      3 O1          1.0630    4.2260    1.1570 o         1 MOL     -0.634003
      4 H1          2.1370    5.1440    3.4400 hc        1 MOL      0.124879
      5 H2          1.4690    3.7970    4.3900 hc        1 MOL      0.124879
      6 H3          2.8010    3.5050    3.2450 hc        1 MOL      0.124879
      7 N1         -0.1810    3.1350    2.5930 n         1 MOL     -0.635159
      8 C3         -1.2510    2.7070    1.7280 c3        1 MOL      0.161866
      9 C4         -2.1030    3.8670    1.3310 c         1 MOL      0.573665
     10 O2         -3.3230    3.8470    1.4870 o         1 MOL     -0.530823
     11 C5         -2.0470    1.4760    2.3880 c3        1 MOL     -0.003026
     12 C6         -3.0300    0.7780    1.3890 c         1 MOL      0.384934
     13 O3         -4.1510    0.5240    1.8590 o         1 MOL     -0.531728
     14 O4         -2.6470    0.5320    0.1860 o         1 MOL     -0.531728
     15 H4         -0.2410    2.8050    3.5380 hn        1 MOL      0.313196
     16 H5         -0.7800    2.2690    0.8570 h1        1 MOL     -0.013113
     17 H6         -2.5610    1.7910    3.2990 hc        1 MOL      0.012057
     18 H7         -1.3000    0.7700    2.7600 hc        1 MOL      0.012057
     19 N2         -1.5390    4.8480    0.6810 n         1 MOL     -0.578406
     20 C7         -2.3500    6.0300    0.1730 c3        1 MOL      0.077836
     21 C8         -3.2260    5.7420   -1.0750 c         1 MOL      0.302841
     22 O5         -4.2330    6.4370   -1.2640 o         1 MOL     -0.506696
     23 C9         -1.4400    7.2270   -0.0890 c3        1 MOL     -0.128680
     24 C10        -0.9920    7.7780    1.2980 c3        1 MOL      0.159779
     25 C11        -0.0470    9.0000    1.1910 c3        1 MOL      0.001588
     26 C12         0.2180    9.6330    2.5520 c3        1 MOL      0.093416
     27 N3          1.3480   10.6200    2.4110 n4        1 MOL     -0.313524
     28 H8         -0.5460    4.7900    0.5460 hn        1 MOL      0.427192
     29 H9         -3.1290    6.3830    0.8570 h1        1 MOL      0.105162
     30 H10        -2.0650    7.9690   -0.5780 hc        1 MOL      0.056982
     31 H11        -0.5620    6.9610   -0.6760 hc        1 MOL      0.056982
     32 H12        -0.3320    7.0500    1.7530 hc        1 MOL     -0.039726
     33 H13        -1.8430    7.9940    1.9540 hc        1 MOL     -0.039726
     34 H14        -0.4120    9.7070    0.4590 hc        1 MOL      0.005562
     35 H15         0.8980    8.6190    0.8060 hc        1 MOL      0.005562
     36 H16         0.5370    8.9200    3.3160 hx        1 MOL      0.066810
     37 H17        -0.6970   10.0890    2.9190 hx        1 MOL      0.066810
     38 H18         1.6050   11.0560    3.2850 hn        1 MOL      0.309110
     39 H19         2.1930   10.1350    2.1500 hn        1 MOL      0.309110
     40 H20         1.2490   11.3000    1.6700 hn        1 MOL      0.309110
     41 N4         -2.8910    4.6370   -1.7450 n         1 MOL     -0.092937
     42 C13        -3.7840    4.1130   -2.7210 c3        1 MOL     -0.160081
     43 C14        -5.0180    3.4300   -2.1890 c         1 MOL      0.483807
     44 O6         -5.9420    3.1070   -2.9100 o         1 MOL     -0.551382
     45 C15        -2.9890    3.1530   -3.6500 c3        1 MOL     -0.190519
     46 C16        -2.2920    2.0210   -3.0240 c         1 MOL      0.766875
     47 O7         -1.3130    2.2020   -2.2470 o         1 MOL     -0.763075
     48 O8         -2.7550    0.8900   -3.1290 o         1 MOL     -0.763075
     49 H21        -1.9630    4.2680   -1.5900 hn        1 MOL      0.181249
     50 H22        -4.1930    4.9330   -3.2970 h1        1 MOL      0.126721
     51 H23        -2.3120    3.7010   -4.3130 hc        1 MOL      0.060894
     52 H24        -3.6910    2.6480   -4.3200 hc        1 MOL      0.060894
     53 N5         -5.1060    3.1650   -0.9220 n         1 MOL     -0.003790
     54 C17        -6.3110    2.7840   -0.1700 c3        1 MOL     -0.258543
     55 C18        -6.8720    1.3990   -0.4360 c         1 MOL      0.650887
     56 O9         -8.0530    1.2130   -0.5690 o         1 MOL     -0.576967
     57 H25        -4.3080    3.2840   -0.3180 hn        1 MOL      0.135316
     58 H26        -7.0560    3.5650   -0.3140 h1        1 MOL      0.106115
     59 H27        -5.9650    2.8240    0.8650 h1        1 MOL      0.106115
     60 N6         -5.9630    0.4190   -0.5400 n         1 MOL     -0.273233
     61 C19        -6.2440   -0.9080   -1.0430 c3        1 MOL     -0.036901
     62 C20        -6.1560   -2.0930   -0.0310 c         1 MOL      0.310751
     63 O10        -6.5540   -3.1920   -0.4000 o         1 MOL     -0.488452
     64 C21        -5.4140   -1.0730   -2.3350 c3        1 MOL     -0.035726
     65 C22        -4.1800   -1.9590   -2.2250 c         1 MOL      0.224410
     66 N7         -4.0990   -3.0630   -2.9760 n         1 MOL     -0.564677
     67 O11        -3.2840   -1.8610   -1.3830 o         1 MOL     -0.247730
     68 H28        -5.0350    0.6250   -0.1960 hn        1 MOL      0.037545
     69 H29        -7.2900   -0.9510   -1.3290 h1        1 MOL      0.128635
     70 H30        -5.1270   -0.1080   -2.7390 hc        1 MOL      0.077937
     71 H31        -6.0860   -1.4740   -3.0920 hc        1 MOL      0.077937
     72 H32        -4.8520   -3.2080   -3.6320 hn        1 MOL      0.306371
     73 H33        -3.2440   -3.6080   -3.0080 hn        1 MOL      0.306371
     74 N8         -5.6280   -1.9160    1.1670 n         1 MOL     -0.090280
     75 C23        -5.5890   -2.9930    2.1880 c3        1 MOL     -0.322165
     76 C24        -4.2530   -3.6720    2.4070 c         1 MOL      0.768371
     77 O12        -4.0700   -4.4960    3.3060 o         1 MOL     -0.612665
     78 H34        -5.1420   -1.0390    1.3120 hn        1 MOL      0.152784
     79 H35        -6.2700   -3.8030    1.9480 h1        1 MOL      0.134940
     80 H36        -5.8140   -2.6000    3.1840 h1        1 MOL      0.134940
     81 N9         -3.3260   -3.3390    1.5310 n         1 MOL     -0.686801
     82 C25        -1.9580   -3.8980    1.4790 c3        1 MOL      0.027699
     83 C26        -0.9360   -2.8330    1.3190 c         1 MOL      0.616558
     84 O13        -1.0260   -1.9860    0.4340 o         1 MOL     -0.688569
     85 C27        -1.8850   -4.8830    0.2850 c3        1 MOL      0.017666
     86 C28        -2.9830   -6.0000    0.4250 ca        1 MOL      0.065184
     87 C29        -4.2090   -5.8630   -0.2920 ca        1 MOL     -0.287900
     88 C30        -2.7590   -7.0820    1.2760 ca        1 MOL     -0.287900
     89 C31        -5.1560   -6.9530   -0.2670 ca        1 MOL     -0.064251
     90 C32        -3.8140   -8.0350    1.4570 ca        1 MOL     -0.064251
     91 C33        -4.9560   -8.0370    0.6000 ca        1 MOL      0.159883
     92 O14        -5.8770   -8.9690    0.7660 oh        1 MOL     -0.439651
     93 H37        -3.5530   -2.6680    0.8170 hn        1 MOL      0.525252
     94 H38        -1.7630   -4.4460    2.4050 h1        1 MOL      0.104619
     95 H39        -0.8770   -5.2860    0.2130 hc        1 MOL      0.008416
     96 H40        -2.0150   -4.2840   -0.6140 hc        1 MOL      0.008416
     97 H41        -4.2580   -4.9660   -0.8960 ha        1 MOL      0.151291
     98 H42        -1.9120   -7.0990    1.9400 ha        1 MOL      0.151291
     99 H43        -6.0440   -6.9390   -0.8780 ha        1 MOL      0.099965
    100 H44        -3.6770   -8.8800    2.1100 ha        1 MOL      0.099965
    101 H45        -5.6830   -9.5560    1.4970 ho        1 MOL      0.358214
    102 N10         0.1980   -2.9620    2.0420 n         1 MOL     -0.413777
    103 C34         1.4830   -2.2880    1.7580 c3        1 MOL      0.034537
    104 C35         2.5150   -3.2130    1.1290 c         1 MOL      0.379078
    105 O15         2.7100   -4.3600    1.5240 o         1 MOL     -0.533037
    106 C36         2.1860   -1.4870    2.8810 c3        1 MOL      0.201729
    107 C37         2.6200   -2.4320    3.9610 c3        1 MOL     -0.270814
    108 C38         1.2430   -0.4270    3.3380 c3        1 MOL     -0.270294
    109 C39         3.4010   -1.7420    5.0900 c3        1 MOL     -0.044078
    110 H46         0.2430   -3.7560    2.6710 hn        1 MOL      0.230345
    111 H47         1.2450   -1.6040    0.9430 h1        1 MOL      0.060349
    112 H48         3.0790   -1.0470    2.4390 hc        1 MOL     -0.003634
    113 H49         3.3200   -3.1900    3.6050 hc        1 MOL      0.113122
    114 H50         1.7100   -2.8390    4.3850 hc        1 MOL      0.113122
    115 H51         0.3430   -0.9060    3.7270 hc        1 MOL      0.072180
    116 H52         1.7270    0.0930    4.1690 hc        1 MOL      0.072180
    117 H53         1.0050    0.2580    2.5230 hc        1 MOL      0.072180
    118 H54         2.8980   -0.9450    5.6260 hc        1 MOL      0.011819
    119 H55         3.6610   -2.5150    5.8090 hc        1 MOL      0.011819
    120 H56         4.2720   -1.3130    4.6000 hc        1 MOL      0.011819
    121 N11         3.1210   -2.7930    0.0020 n         1 MOL     -0.115214
    122 C40         4.3130   -3.2840   -0.6840 c3        1 MOL     -0.119273
    123 C41         5.6770   -2.9150   -0.0170 c         1 MOL      0.577046
    124 O16         5.7020   -1.9490    0.7270 o         1 MOL     -0.446578
    125 C42         4.2030   -2.8380   -2.1060 c3        1 MOL     -0.030185
    126 O17         4.1350   -1.4380   -2.3110 oh        1 MOL     -0.517448
    127 H57         2.5460   -2.1540   -0.5210 hn        1 MOL      0.182186
    128 H58         4.2830   -4.3790   -0.6920 h1        1 MOL      0.053400
    129 H59         3.3270   -3.3480   -2.4900 h1        1 MOL      0.076802
    130 H60         5.1380   -3.1880   -2.5390 h1        1 MOL      0.076802
    131 H61         3.2930   -1.0990   -2.0090 ho        1 MOL      0.352734
    132 N12         6.7840   -3.5630   -0.3890 n         1 MOL     -0.488255
    133 C43         8.1710   -3.2130   -0.1920 c3        1 MOL      0.079010
    134 C44         8.5740   -1.9840   -0.9840 c         1 MOL      0.510932
    135 O18         9.4390   -1.2100   -0.6200 o         1 MOL     -0.511540
    136 C45         9.0170   -4.4640   -0.6600 c3        1 MOL     -0.353832
    137 H62         6.5830   -4.3490   -1.0050 hn        1 MOL      0.290919
    138 H63         8.4230   -2.9550    0.8460 h1        1 MOL      0.105743
    139 H64         8.8480   -5.2940    0.0270 hc        1 MOL      0.115761
    140 H65         8.7060   -4.7570   -1.6640 hc        1 MOL      0.115761
    141 H66        10.0730   -4.2040   -0.5590 hc        1 MOL      0.115761
    142 N13         7.7460   -1.6010   -1.9940 n         1 MOL     -0.524858
    143 C46         8.0280   -0.3460   -2.7560 c3        1 MOL      0.259322
    144 C47         7.4110    0.7880   -1.9890 c         1 MOL      0.321063
    145 O19         8.0970    1.8580   -1.8200 o         1 MOL     -0.495775
    146 C48         7.5200   -0.4550   -4.1770 c3        1 MOL     -0.338643
    147 H67         6.8640   -2.0940   -2.0330 hn        1 MOL      0.328677
    148 H68         9.0740   -0.0630   -2.6920 h1        1 MOL      0.074644
    149 H69         7.6150   -1.4360   -4.6490 hc        1 MOL      0.087234
    150 H70         6.4420   -0.3620   -4.0600 hc        1 MOL      0.087234
    151 H71         7.7830    0.4350   -4.7430 hc        1 MOL      0.087234
    152 N14         6.2440    0.5600   -1.3180 n         1 MOL      0.023929
    153 C49         5.5900    1.6250   -0.5660 c3        1 MOL     -0.091092
    154 C50         6.4270    1.9620    0.6960 c         1 MOL      0.409690
    155 O20         6.5970    3.1890    1.0320 o         1 MOL     -0.544175
    156 C51         4.2610    1.0870   -0.0590 c3        1 MOL      0.214466
    157 C52         3.1070    1.3500   -1.0120 c3        1 MOL     -0.022747
    158 C53         1.8750    0.4530   -0.8410 c         1 MOL      0.540464
    159 O21         0.9430    0.9200   -0.1710 o         1 MOL     -0.590840
    160 O22         1.7710   -0.6650   -1.3620 o         1 MOL     -0.590840
    161 H72         5.7060   -0.2840   -1.4820 hn        1 MOL     -0.054810
    162 H73         5.4070    2.4820   -1.2080 h1        1 MOL      0.072337
    163 H74         4.1370    1.5760    0.9110 hc        1 MOL     -0.034478
    164 H75         4.2670    0.0340    0.2170 hc        1 MOL     -0.034478
    165 H76         3.3770    1.1960   -2.0510 hc        1 MOL     -0.001607
    166 H77         2.8930    2.4120   -0.8880 hc        1 MOL     -0.001607
    167 N15         7.0100    0.9140    1.3470 n         1 MOL     -0.164279
    168 C54         8.0710    0.9330    2.3410 c3        1 MOL     -0.189269
    169 H78         8.4290    1.9540    2.4690 h1        1 MOL      0.089094
    170 H79         7.6870    0.5610    3.2900 h1        1 MOL      0.089094
    171 H80         8.8920    0.3000    2.0080 h1        1 MOL      0.089094
    172 H81         6.7190   -0.0140    1.0760 hn        1 MOL      0.180456
    173 Ca1        -0.9990   -0.2970   -1.4990 Ca        1 MOL      1.654997
    174 O23         0.3120    0.0780   -3.8150 oh        1 MOL     -0.810586
    175 H82         0.0920    0.7970   -4.4110 ho        1 MOL      0.400870
    176 H83         0.8140   -0.5320   -4.3450 ho        1 MOL      0.400870
    177 O24        -0.4570   -2.6220   -2.8600 oh        1 MOL     -0.810586
    178 H84         0.2690   -3.1990   -2.6200 ho        1 MOL      0.400870
    179 H85        -0.8460   -3.0390   -3.6360 ho        1 MOL      0.400870
@<TRIPOS>BOND
     1    1    2 1   
     2    1    4 1   
     3    1    5 1   
     4    1    6 1   
     5    2    3 2   
     6    2    7 1   
     7    7    8 1   
     8    7   15 1   
     9    8    9 1   
    10    8   11 1   
    11    8   16 1   
    12    9   10 2   
    13    9   19 1   
    14   11   12 1   
    15   11   17 1   
    16   11   18 1   
    17   12   13 1   
    18   12   14 1   
    19   19   20 1   
    20   19   28 1   
    21   20   21 1   
    22   20   23 1   
    23   20   29 1   
    24   21   22 2   
    25   21   41 1   
    26   23   24 1   
    27   23   30 1   
    28   23   31 1   
    29   24   25 1   
    30   24   32 1   
    31   24   33 1   
    32   25   26 1   
    33   25   34 1   
    34   25   35 1   
    35   26   27 1   
    36   26   36 1   
    37   26   37 1   
    38   27   38 1   
    39   27   39 1   
    40   27   40 1   
    41   41   42 1   
    42   41   49 1   
    43   42   43 1   
    44   42   45 1   
    45   42   50 1   
    46   43   44 2   
    47   43   53 1   
    48   45   46 1   
    49   45   51 1   
    50   45   52 1   
    51   46   47 1   
    52   46   48 1   
    53   53   54 1   
    54   53   57 1   
    55   54   55 1   
    56   54   58 1   
    57   54   59 1   
    58   55   56 2   
    59   55   60 1   
    60   60   61 1   
    61   60   68 1   
    62   61   62 1   
    63   61   64 1   
    64   61   69 1   
    65   62   63 2   
    66   62   74 1   
    67   64   65 1   
    68   64   70 1   
    69   64   71 1   
    70   65   66 1   
    71   65   67 2   
    72   66   72 1   
    73   66   73 1   
    74   74   75 1   
    75   74   78 1   
    76   75   76 1   
    77   75   79 1   
    78   75   80 1   
    79   76   77 2   
    80   76   81 1   
    81   81   82 1   
    82   81   93 1   
    83   82   83 1   
    84   82   85 1   
    85   82   94 1   
    86   83   84 2   
    87   83  102 1   
    88   85   86 1   
    89   85   95 1   
    90   85   96 1   
    91   86   87 ar  
    92   86   88 ar  
    93   87   89 ar  
    94   87   97 1   
    95   88   90 ar  
    96   88   98 1   
    97   89   91 ar  
    98   89   99 1   
    99   90   91 ar  
   100   90  100 1   
   101   91   92 1   
   102   92  101 1   
   103  102  103 1   
   104  102  110 1   
   105  103  104 1   
   106  103  106 1   
   107  103  111 1   
   108  104  105 2   
   109  104  121 1   
   110  106  107 1   
   111  106  108 1   
   112  106  112 1   
   113  107  109 1   
   114  107  113 1   
   115  107  114 1   
   116  108  115 1   
   117  108  116 1   
   118  108  117 1   
   119  109  118 1   
   120  109  119 1   
   121  109  120 1   
   122  121  122 1   
   123  121  127 1   
   124  122  123 1   
   125  122  125 1   
   126  122  128 1   
   127  123  124 2   
   128  123  132 1   
   129  125  126 1   
   130  125  129 1   
   131  125  130 1   
   132  126  131 1   
   133  132  133 1   
   134  132  137 1   
   135  133  134 1   
   136  133  136 1   
   137  133  138 1   
   138  134  135 2   
   139  134  142 1   
   140  136  139 1   
   141  136  140 1   
   142  136  141 1   
   143  142  143 1   
   144  142  147 1   
   145  143  144 1   
   146  143  146 1   
   147  143  148 1   
   148  144  145 2   
   149  144  152 1   
   150  146  149 1   
   151  146  150 1   
   152  146  151 1   
   153  152  153 1   
   154  152  161 1   
   155  153  154 1   
   156  153  156 1   
   157  153  162 1   
   158  154  155 2   
   159  154  167 1   
   160  156  157 1   
   161  156  163 1   
   162  156  164 1   
   163  157  158 1   
   164  157  165 1   
   165  157  166 1   
   166  158  159 1   
   167  158  160 1   
   168  167  168 1   
   169  167  172 1   
   170  168  169 1   
   171  168  170 1   
   172  168  171 1   
   173  174  175 1   
   174  174  176 1   
   175  177  178 1   
   176  177  179 1   
@<TRIPOS>SUBSTRUCTURE
     1 MOL         1 TEMP              0 ****  ****    0 ROOT
