@<TRIPOS>MOLECULE
MOL
  179   176     1     0     0
SMALL
resp


@<TRIPOS>ATOM
      1 C1          0.8040    2.8100    6.9140 c3        1 MOL     -0.286473
      2 C2          0.9780    2.5470    5.3690 c         1 MOL      0.661732
      3 O1          2.1710    2.4810    4.8880 o         1 MOL     -0.555274
      4 H1          1.5570    2.2470    7.4650 hc        1 MOL      0.079618
      5 H2          0.9250    3.8740    7.1180 hc        1 MOL      0.079618
      6 H3         -0.1900    2.4910    7.2270 hc        1 MOL      0.079618
      7 N1         -0.0800    2.1860    4.6430 n         1 MOL     -0.580536
      8 C3         -0.0950    2.1020    3.1900 c3        1 MOL     -0.079436
      9 C4          0.3380    3.4140    2.5240 c         1 MOL      0.641488
     10 O2         -0.0100    4.5360    3.0330 o         1 MOL     -0.534095
     11 C5         -1.5280    1.6410    2.6460 c3        1 MOL     -0.169339
     12 C6         -1.5300    1.4010    1.1790 c         1 MOL      0.891709
     13 O3         -2.6500    1.3510    0.5810 o         1 MOL     -0.773841
     14 O4         -0.4420    1.0890    0.6450 o         1 MOL     -0.773841
     15 H4         -1.0030    2.0770    5.0260 hn        1 MOL      0.334406
     16 H5          0.6610    1.3580    2.9490 h1        1 MOL      0.064725
     17 H6         -2.3370    2.3420    2.8680 hc        1 MOL      0.052007
     18 H7         -1.8060    0.6620    3.0370 hc        1 MOL      0.052007
     19 N2          0.8780    3.3290    1.3150 n         1 MOL     -0.542301
     20 C7          1.2560    4.5380    0.5490 c3        1 MOL     -0.058829
     21 C8          0.1070    5.2550   -0.0910 c         1 MOL      0.392576
     22 O5          0.0250    6.5110   -0.1580 o         1 MOL     -0.527754
     23 C9          2.3710    4.1600   -0.5120 c3        1 MOL      0.319592
     24 C10         3.0580    5.3780   -1.0820 c3        1 MOL     -0.231620
     25 C11         4.0420    4.8540   -2.1810 c3        1 MOL      0.069889
     26 C12         4.7220    5.9850   -2.9280 c3        1 MOL      0.064458
     27 N3          5.7790    5.5770   -3.8540 n4        1 MOL     -0.352282
     28 H8          0.9780    2.4390    0.8430 hn        1 MOL      0.393809
     29 H9          1.6810    5.3430    1.1490 h1        1 MOL      0.109187
     30 H10         1.8810    3.6550   -1.3510 hc        1 MOL     -0.053941
     31 H11         3.1390    3.5810    0.0030 hc        1 MOL     -0.053941
     32 H12         3.5930    5.8290   -0.2500 hc        1 MOL      0.066993
     33 H13         2.3490    6.0190   -1.6160 hc        1 MOL      0.066993
     34 H14         3.5240    4.2340   -2.9080 hc        1 MOL      0.019651
     35 H15         4.8590    4.2690   -1.7460 hc        1 MOL      0.019651
     36 H16         5.0600    6.7890   -2.2810 hx        1 MOL      0.072820
     37 H17         3.9800    6.4900   -3.5650 hx        1 MOL      0.072820
     38 H18         6.3160    6.2800   -4.3490 hn        1 MOL      0.319421
     39 H19         6.5290    5.0470   -3.4330 hn        1 MOL      0.319421
     40 H20         5.4160    4.9670   -4.5620 hn        1 MOL      0.319421
     41 N4         -0.9300    4.4800   -0.6290 n         1 MOL     -0.115899
     42 C13        -2.1110    5.0070   -1.3200 c3        1 MOL      0.001600
     43 C14        -3.4890    4.7050   -0.7020 c         1 MOL      0.376056
     44 O6         -4.5080    5.1220   -1.2430 o         1 MOL     -0.498788
     45 C15        -2.2020    4.5840   -2.7990 c3        1 MOL     -0.221570
     46 C16        -2.4280    3.1120   -3.0620 c         1 MOL      0.793233
     47 O7         -2.4990    2.8280   -4.3360 o         1 MOL     -0.714836
     48 O8         -2.4440    2.2510   -2.1760 o         1 MOL     -0.714836
     49 H21        -0.7900    3.4840   -0.7510 hn        1 MOL      0.113468
     50 H22        -1.9380    6.0900   -1.3040 h1        1 MOL      0.103979
     51 H23        -1.2710    4.9330   -3.2550 hc        1 MOL      0.057682
     52 H24        -3.0130    5.1920   -3.2000 hc        1 MOL      0.057682
     53 N5         -3.5400    4.0820    0.4430 n         1 MOL     -0.186352
     54 C17        -4.7290    3.8090    1.2660 c3        1 MOL     -0.008767
     55 C18        -5.8230    2.9510    0.5610 c         1 MOL      0.361862
     56 O9         -7.0090    3.3080    0.7540 o         1 MOL     -0.530055
     57 H25        -2.6490    3.7670    0.7820 hn        1 MOL      0.105802
     58 H26        -5.2040    4.7460    1.5280 h1        1 MOL      0.071719
     59 H27        -4.4190    3.3520    2.2090 h1        1 MOL      0.071719
     60 N6         -5.4770    1.9090   -0.2000 n         1 MOL     -0.030201
     61 C19        -6.4420    1.1590   -1.0350 c3        1 MOL     -0.064883
     62 C20        -7.0850    0.0300   -0.2260 c         1 MOL      0.370433
     63 O10        -8.1630   -0.3780   -0.6870 o         1 MOL     -0.519800
     64 C21        -5.9420    0.5660   -2.3250 c3        1 MOL     -0.150729
     65 C22        -4.9440   -0.6120   -2.0990 c         1 MOL      0.415489
     66 N7         -5.3290   -1.8180   -2.4370 n         1 MOL     -0.617032
     67 O11        -3.9330   -0.5920   -1.4290 o         1 MOL     -0.500652
     68 H28        -4.5050    1.6260   -0.2580 hn        1 MOL      0.115326
     69 H29        -7.2900    1.8260   -1.1640 h1        1 MOL      0.139856
     70 H30        -5.4690    1.3590   -2.9110 hc        1 MOL      0.105837
     71 H31        -6.7470    0.2580   -2.9930 hc        1 MOL      0.105837
     72 H32        -6.3020   -1.8340   -2.7100 hn        1 MOL      0.311752
     73 H33        -4.8400   -2.6960   -2.4570 hn        1 MOL      0.311752
     74 N8         -6.5600   -0.4720    0.8900 n         1 MOL     -0.122722
     75 C23        -6.9510   -1.6990    1.5620 c3        1 MOL     -0.143587
     76 C24        -5.8090   -2.4720    2.1520 c         1 MOL      0.499058
     77 O12        -5.8870   -3.3230    3.0270 o         1 MOL     -0.557297
     78 H34        -5.8240    0.0600    1.3380 hn        1 MOL      0.151381
     79 H35        -7.3400   -2.4440    0.8610 h1        1 MOL      0.106791
     80 H36        -7.7140   -1.4880    2.3060 h1        1 MOL      0.106791
     81 N9         -4.6340   -2.3730    1.5040 n         1 MOL     -0.296398
     82 C25        -3.3710   -3.1310    1.8270 c3        1 MOL      0.035239
     83 C26        -2.1090   -2.3560    1.4620 c         1 MOL      0.258771
     84 O13        -2.0090   -1.5930    0.5540 o         1 MOL     -0.496270
     85 C27        -3.3820   -4.5870    1.3730 c3        1 MOL     -0.155865
     86 C28        -3.7460   -4.7590   -0.0570 ca        1 MOL      0.288479
     87 C29        -2.8010   -4.7320   -1.1200 ca        1 MOL     -0.335899
     88 C30        -5.0700   -5.1620   -0.3640 ca        1 MOL     -0.335899
     89 C31        -3.2780   -5.1290   -2.4480 ca        1 MOL     -0.178884
     90 C32        -5.4990   -5.4800   -1.6980 ca        1 MOL     -0.178884
     91 C33        -4.5620   -5.5180   -2.7620 ca        1 MOL      0.271318
     92 O14        -4.7830   -5.9950   -3.9910 oh        1 MOL     -0.436748
     93 H37        -4.6380   -1.7390    0.7230 hn        1 MOL      0.237340
     94 H38        -3.4530   -3.1400    2.9170 h1        1 MOL      0.095527
     95 H39        -4.1090   -5.0820    2.0060 hc        1 MOL      0.066710
     96 H40        -2.3840   -5.0280    1.4730 hc        1 MOL      0.066710
     97 H41        -1.7720   -4.4600   -1.0070 ha        1 MOL      0.213389
     98 H42        -5.8050   -5.3370    0.4000 ha        1 MOL      0.213389
     99 H43        -2.5520   -5.3110   -3.2190 ha        1 MOL      0.137329
    100 H44        -6.5170   -5.8240   -1.8430 ha        1 MOL      0.137329
    101 H45        -3.9630   -6.0070   -4.4680 ho        1 MOL      0.333604
    102 N10        -1.0520   -2.7090    2.1360 n         1 MOL     -0.040462
    103 C34         0.3290   -2.3370    1.9750 c3        1 MOL      0.036661
    104 C35         1.0870   -3.4510    1.2500 c         1 MOL      0.406446
    105 O15         0.6840   -4.5800    1.4900 o         1 MOL     -0.553723
    106 C36         1.0500   -2.1060    3.3560 c3        1 MOL      0.022236
    107 C37         0.1520   -1.2600    4.2970 c3        1 MOL      0.030349
    108 C38         2.3510   -1.2620    3.0950 c3        1 MOL     -0.332628
    109 C39        -0.7670   -2.0330    5.2430 c3        1 MOL     -0.295284
    110 H46        -1.2550   -3.2960    2.9370 hn        1 MOL      0.166153
    111 H47         0.3850   -1.4300    1.3710 h1        1 MOL     -0.030264
    112 H48         1.3370   -3.0370    3.8580 hc        1 MOL      0.053388
    113 H49        -0.4910   -0.6790    3.6350 hc        1 MOL      0.068798
    114 H50         0.7470   -0.5070    4.8250 hc        1 MOL      0.068798
    115 H51         2.8120   -0.9030    4.0110 hc        1 MOL      0.084610
    116 H52         3.0790   -1.8500    2.5330 hc        1 MOL      0.084610
    117 H53         2.0860   -0.3870    2.4940 hc        1 MOL      0.084610
    118 H54        -0.2260   -2.9400    5.4950 hc        1 MOL      0.065571
    119 H55        -1.0430   -1.4740    6.1420 hc        1 MOL      0.065571
    120 H56        -1.7250   -2.3130    4.8070 hc        1 MOL      0.065571
    121 N11         2.1950   -3.2380    0.5050 n         1 MOL      0.072012
    122 C40         3.1570   -4.1810   -0.0430 c3        1 MOL     -0.166570
    123 C41         4.5710   -3.6770    0.1020 c         1 MOL      0.381037
    124 O16         4.8030   -2.7110    0.8210 o         1 MOL     -0.311023
    125 C42         2.7020   -4.5110   -1.4910 c3        1 MOL      0.190764
    126 O17         2.7710   -3.3170   -2.2410 oh        1 MOL     -0.604163
    127 H57         2.3880   -2.2830    0.2490 hn        1 MOL     -0.138374
    128 H58         3.1610   -5.1340    0.4850 h1        1 MOL      0.108230
    129 H59         1.6710   -4.8510   -1.4630 h1        1 MOL      0.012490
    130 H60         3.4020   -5.1840   -1.9860 h1        1 MOL      0.012490
    131 H61         1.9840   -2.7600   -2.1530 ho        1 MOL      0.452060
    132 N12         5.6390   -4.3930   -0.3250 n         1 MOL     -0.322705
    133 C43         7.0190   -4.0570    0.0350 c3        1 MOL      0.033266
    134 C44         7.4610   -2.7070   -0.5240 c         1 MOL      0.506830
    135 O18         7.9810   -1.9040    0.2520 o         1 MOL     -0.523147
    136 C45         8.0080   -5.1810   -0.3590 c3        1 MOL     -0.262286
    137 H62         5.4050   -5.2490   -0.8150 hn        1 MOL      0.264163
    138 H63         6.9290   -3.8920    1.1110 h1        1 MOL      0.081357
    139 H64         7.6320   -6.1430   -0.0100 hc        1 MOL      0.090175
    140 H65         8.0410   -5.3090   -1.4420 hc        1 MOL      0.090175
    141 H66         9.0200   -5.0350    0.0070 hc        1 MOL      0.090175
    142 N13         7.0840   -2.3750   -1.7220 n         1 MOL     -0.433072
    143 C46         7.5040   -1.0270   -2.1910 c3        1 MOL      0.181058
    144 C47         6.9080    0.0920   -1.2970 c         1 MOL      0.243880
    145 O19         7.4680    1.1810   -1.2240 o         1 MOL     -0.512940
    146 C48         6.9620   -0.9770   -3.6230 c3        1 MOL     -0.328037
    147 H67         6.6300   -3.0010   -2.3760 hn        1 MOL      0.284184
    148 H68         8.5910   -1.0790   -2.2080 h1        1 MOL      0.084255
    149 H69         5.8800   -1.1120   -3.6860 hc        1 MOL      0.089296
    150 H70         7.1190    0.0710   -3.8560 hc        1 MOL      0.089296
    151 H71         7.5000   -1.6580   -4.2680 hc        1 MOL      0.089296
    152 N14         5.6870   -0.1320   -0.8930 n         1 MOL     -0.005712
    153 C49         4.8900    0.8530   -0.0890 c3        1 MOL     -0.031709
    154 C50         5.2200    0.8610    1.4350 c         1 MOL      0.371707
    155 O20         5.1490    1.9250    2.0570 o         1 MOL     -0.502483
    156 C51         3.4390    0.5270   -0.3180 c3        1 MOL     -0.050852
    157 C52         3.1370    0.5440   -1.8160 c3        1 MOL      0.065736
    158 C53         1.6570    0.3030   -2.1140 c         1 MOL      0.634746
    159 O21         1.0940   -0.7060   -1.6480 o         1 MOL     -0.716078
    160 O22         0.8910    1.2160   -2.4650 o         1 MOL     -0.716078
    161 H72         5.3050   -1.0560   -1.0240 hn        1 MOL      0.137767
    162 H73         5.0860    1.8250   -0.5450 h1        1 MOL      0.067458
    163 H74         2.8280    1.2620    0.2010 hc        1 MOL      0.092161
    164 H75         3.1230   -0.4580    0.0300 hc        1 MOL      0.092161
    165 H76         3.5890   -0.3660   -2.2070 hc        1 MOL     -0.067216
    166 H77         3.5630    1.4160   -2.3200 hc        1 MOL     -0.067216
    167 N15         5.7650   -0.2660    1.9360 n         1 MOL     -0.025746
    168 C54         6.3900   -0.3330    3.2560 c3        1 MOL     -0.221189
    169 H78         5.8390   -1.0330    3.8840 h1        1 MOL      0.093331
    170 H79         7.4210   -0.6730    3.1540 h1        1 MOL      0.093331
    171 H80         6.3770    0.6550    3.7160 h1        1 MOL      0.093331
    172 H81         5.5630   -1.1400    1.4650 hn        1 MOL      0.083246
    173 Ca1        -1.4200   -0.0040   -1.5520 Ca        1 MOL      1.747302
    174 O23        -1.9290    0.2450   -4.2990 oh        1 MOL     -0.838609
    175 H82        -2.0510    1.1950   -4.3750 ho        1 MOL      0.381630
    176 H83        -2.2700   -0.1020   -5.1170 ho        1 MOL      0.381630
    177 O24        -1.1540   -2.4010   -2.6120 oh        1 MOL     -0.838609
    178 H84        -0.5080   -2.8780   -3.1390 ho        1 MOL      0.381630
    179 H85        -1.9080   -2.9750   -2.5700 ho        1 MOL      0.381630
@<TRIPOS>BOND
     1    1    2 1   
     2    1    4 1   
     3    1    5 1   
     4    1    6 1   
     5    2    3 2   
     6    2    7 1   
     7    7    8 1   
     8    7   15 1   
     9    8    9 1   
    10    8   11 1   
    11    8   16 1   
    12    9   10 2   
    13    9   19 1   
    14   11   12 1   
    15   11   17 1   
    16   11   18 1   
    17   12   13 1   
    18   12   14 1   
    19   19   20 1   
    20   19   28 1   
    21   20   21 1   
    22   20   23 1   
    23   20   29 1   
    24   21   22 2   
    25   21   41 1   
    26   23   24 1   
    27   23   30 1   
    28   23   31 1   
    29   24   25 1   
    30   24   32 1   
    31   24   33 1   
    32   25   26 1   
    33   25   34 1   
    34   25   35 1   
    35   26   27 1   
    36   26   36 1   
    37   26   37 1   
    38   27   38 1   
    39   27   39 1   
    40   27   40 1   
    41   41   42 1   
    42   41   49 1   
    43   42   43 1   
    44   42   45 1   
    45   42   50 1   
    46   43   44 2   
    47   43   53 1   
    48   45   46 1   
    49   45   51 1   
    50   45   52 1   
    51   46   47 1   
    52   46   48 1   
    53   53   54 1   
    54   53   57 1   
    55   54   55 1   
    56   54   58 1   
    57   54   59 1   
    58   55   56 2   
    59   55   60 1   
    60   60   61 1   
    61   60   68 1   
    62   61   62 1   
    63   61   64 1   
    64   61   69 1   
    65   62   63 2   
    66   62   74 1   
    67   64   65 1   
    68   64   70 1   
    69   64   71 1   
    70   65   66 1   
    71   65   67 2   
    72   66   72 1   
    73   66   73 1   
    74   74   75 1   
    75   74   78 1   
    76   75   76 1   
    77   75   79 1   
    78   75   80 1   
    79   76   77 2   
    80   76   81 1   
    81   81   82 1   
    82   81   93 1   
    83   82   83 1   
    84   82   85 1   
    85   82   94 1   
    86   83   84 2   
    87   83  102 1   
    88   85   86 1   
    89   85   95 1   
    90   85   96 1   
    91   86   87 ar  
    92   86   88 ar  
    93   87   89 ar  
    94   87   97 1   
    95   88   90 ar  
    96   88   98 1   
    97   89   91 ar  
    98   89   99 1   
    99   90   91 ar  
   100   90  100 1   
   101   91   92 1   
   102   92  101 1   
   103  102  103 1   
   104  102  110 1   
   105  103  104 1   
   106  103  106 1   
   107  103  111 1   
   108  104  105 2   
   109  104  121 1   
   110  106  107 1   
   111  106  108 1   
   112  106  112 1   
   113  107  109 1   
   114  107  113 1   
   115  107  114 1   
   116  108  115 1   
   117  108  116 1   
   118  108  117 1   
   119  109  118 1   
   120  109  119 1   
   121  109  120 1   
   122  121  122 1   
   123  121  127 1   
   124  122  123 1   
   125  122  125 1   
   126  122  128 1   
   127  123  124 2   
   128  123  132 1   
   129  125  126 1   
   130  125  129 1   
   131  125  130 1   
   132  126  131 1   
   133  132  133 1   
   134  132  137 1   
   135  133  134 1   
   136  133  136 1   
   137  133  138 1   
   138  134  135 2   
   139  134  142 1   
   140  136  139 1   
   141  136  140 1   
   142  136  141 1   
   143  142  143 1   
   144  142  147 1   
   145  143  144 1   
   146  143  146 1   
   147  143  148 1   
   148  144  145 2   
   149  144  152 1   
   150  146  149 1   
   151  146  150 1   
   152  146  151 1   
   153  152  153 1   
   154  152  161 1   
   155  153  154 1   
   156  153  156 1   
   157  153  162 1   
   158  154  155 2   
   159  154  167 1   
   160  156  157 1   
   161  156  163 1   
   162  156  164 1   
   163  157  158 1   
   164  157  165 1   
   165  157  166 1   
   166  158  159 1   
   167  158  160 1   
   168  167  168 1   
   169  167  172 1   
   170  168  169 1   
   171  168  170 1   
   172  168  171 1   
   173  174  175 1   
   174  174  176 1   
   175  177  178 1   
   176  177  179 1   
@<TRIPOS>SUBSTRUCTURE
     1 MOL         1 TEMP              0 ****  ****    0 ROOT
