@<TRIPOS>MOLECULE
MOL
  183   181     1     0     0
SMALL
resp


@<TRIPOS>ATOM
      1 C1         -0.0590    1.5950    6.2870 c3        1 MOL     -0.322461
      2 C2         -0.6370    1.8200    4.8630 c         1 MOL      0.758365
      3 O1         -0.0310    2.5910    4.0790 o         1 MOL     -0.603684
      4 H1         -0.4580    0.6670    6.6970 hc        1 MOL      0.070537
      5 H2          1.0280    1.5290    6.2330 hc        1 MOL      0.070537
      6 H3         -0.3420    2.4270    6.9300 hc        1 MOL      0.070537
      7 N1         -1.7770    1.2330    4.5180 n         1 MOL     -0.669455
      8 C3         -2.3820    1.3790    3.1760 c3        1 MOL      0.261507
      9 C4         -2.7550    2.8190    2.7480 c         1 MOL      0.463251
     10 O2         -3.3670    3.5790    3.4600 o         1 MOL     -0.573966
     11 C5         -3.6380    0.4530    3.2920 c3        1 MOL     -0.189658
     12 C6         -4.4320    0.2260    1.9500 c         1 MOL      0.851731
     13 O3         -5.6220   -0.1480    2.1030 o         1 MOL     -0.711142
     14 O4         -3.7800    0.3570    0.8520 o         1 MOL     -0.711142
     15 H4         -2.2440    0.6260    5.1750 hn        1 MOL      0.333077
     16 H5         -1.8080    0.9310    2.3690 h1        1 MOL      0.003359
     17 H6         -4.3530    0.8710    3.9950 hc        1 MOL      0.012649
     18 H7         -3.2870   -0.5130    3.6430 hc        1 MOL      0.012649
     19 N2         -2.3460    3.2140    1.5710 n         1 MOL     -0.164931
     20 C7         -2.5050    4.6720    1.1180 c3        1 MOL     -0.009153
     21 C8         -3.7930    4.8570    0.3550 c         1 MOL      0.549425
     22 O5         -4.4700    5.8010    0.7430 o         1 MOL     -0.585683
     23 C9         -1.2360    5.2190    0.3010 c3        1 MOL      0.175127
     24 C10         0.0210    5.2640    1.2410 c3        1 MOL      0.014950
     25 C11        -1.4780    6.6200   -0.3660 c3        1 MOL     -0.454629
     26 C12         1.3350    5.5460    0.5390 c3        1 MOL     -0.129299
     27 H8         -1.9150    2.5080    0.9870 hn        1 MOL      0.066981
     28 H9         -2.6320    5.2100    2.0590 h1        1 MOL      0.065699
     29 H10        -1.0160    4.4750   -0.4600 hc        1 MOL      0.022767
     30 H11         0.1050    4.2510    1.6010 hc        1 MOL      0.002468
     31 H12        -0.1580    5.9840    2.0420 hc        1 MOL      0.002468
     32 H13        -2.4250    6.6840   -0.8840 hc        1 MOL      0.107079
     33 H14        -1.5120    7.4080    0.3910 hc        1 MOL      0.107079
     34 H15        -0.7330    6.8380   -1.1320 hc        1 MOL      0.107079
     35 H16         1.5080    5.0270   -0.4070 hc        1 MOL      0.028320
     36 H17         1.3490    6.5970    0.2510 hc        1 MOL      0.028320
     37 H18         2.1520    5.2910    1.2180 hc        1 MOL      0.028320
     38 N3         -4.0950    4.0160   -0.6620 n         1 MOL     -0.349356
     39 C13        -5.2150    4.1430   -1.6430 c3        1 MOL     -0.161524
     40 C14        -6.4510    3.3590   -1.2440 c         1 MOL      0.406280
     41 O6         -7.5030    3.5140   -1.9520 o         1 MOL     -0.559848
     42 C15        -4.7130    3.7100   -2.9530 c3        1 MOL     -0.026940
     43 C16        -3.7820    2.4980   -3.1100 c         1 MOL      0.755215
     44 O7         -3.5750    1.6160   -2.2270 o         1 MOL     -0.709927
     45 O8         -3.1810    2.4500   -4.2040 o         1 MOL     -0.709927
     46 H19        -3.5280    3.2050   -0.8370 hn        1 MOL      0.201417
     47 H20        -5.4550    5.1680   -1.8890 h1        1 MOL      0.137561
     48 H21        -4.1970    4.5770   -3.3700 hc        1 MOL      0.023028
     49 H22        -5.4940    3.5480   -3.7030 hc        1 MOL      0.023028
     50 N4         -6.4000    2.6060   -0.1920 n         1 MOL      0.018230
     51 C17        -7.5210    1.9020    0.4100 c3        1 MOL     -0.301044
     52 C18        -7.8820    0.6110   -0.4180 c         1 MOL      0.780211
     53 O9         -8.8970    0.6920   -1.0860 o         1 MOL     -0.611117
     54 H23        -5.4740    2.4130    0.1580 hn        1 MOL      0.097973
     55 H24        -8.3970    2.5490    0.4210 h1        1 MOL      0.096554
     56 H25        -7.3960    1.5690    1.4390 h1        1 MOL      0.096554
     57 N5         -7.1910   -0.4960   -0.2610 n         1 MOL     -0.553166
     58 C19        -7.4750   -1.8130   -0.8580 c3        1 MOL      0.054122
     59 C20        -7.3370   -3.0250    0.1250 c         1 MOL      0.459460
     60 O10        -7.8310   -4.1060   -0.2410 o         1 MOL     -0.551833
     61 C21        -6.7110   -1.9860   -2.1630 c3        1 MOL     -0.161155
     62 C22        -5.2630   -1.7460   -1.9660 c         1 MOL      0.877367
     63 O11        -4.6420   -1.1380   -2.8590 o         1 MOL     -0.808936
     64 O12        -4.6150   -2.1190   -0.9780 o         1 MOL     -0.808936
     65 H26        -6.3320   -0.4200    0.2610 hn        1 MOL      0.184765
     66 H27        -8.4890   -1.8400   -1.2580 h1        1 MOL      0.061954
     67 H28        -7.0570   -1.2050   -2.8440 hc        1 MOL      0.053881
     68 H29        -6.7490   -2.9570   -2.6740 hc        1 MOL      0.053881
     69 N6         -6.7130   -2.8050    1.3100 n         1 MOL     -0.306052
     70 C23        -6.4460   -3.8930    2.1910 c3        1 MOL     -0.061010
     71 C24        -5.1560   -4.6610    2.0270 c         1 MOL      0.594054
     72 O13        -4.9350   -5.5370    2.8050 o         1 MOL     -0.611310
     73 H30        -6.3490   -1.8850    1.5430 hn        1 MOL      0.297046
     74 H31        -7.2480   -4.6300    2.1370 h1        1 MOL      0.049054
     75 H32        -6.4300   -3.5510    3.2220 h1        1 MOL      0.049054
     76 N7         -4.2590   -4.1470    1.2000 n         1 MOL     -0.290027
     77 C25        -2.8310   -4.6330    0.9950 c3        1 MOL      0.005322
     78 C26        -1.8330   -3.5020    0.9580 c         1 MOL      0.625425
     79 O14        -2.0870   -2.3530    0.6050 o         1 MOL     -0.623346
     80 C27        -2.8520   -5.5390   -0.1900 c3        1 MOL     -0.016028
     81 C28        -3.0860   -4.9720   -1.5560 c3        1 MOL     -0.164605
     82 C29        -1.9680   -4.1610   -2.2710 c         1 MOL      0.483335
     83 N8         -1.0790   -4.7440   -3.0390 n         1 MOL     -0.643003
     84 O15        -1.9260   -2.9350   -2.1760 o         1 MOL     -0.510328
     85 H33        -4.4390   -3.2710    0.7360 hn        1 MOL      0.216631
     86 H34        -2.4600   -5.1780    1.8640 h1        1 MOL      0.037278
     87 H35        -3.5800   -6.3380   -0.0210 hc        1 MOL      0.006602
     88 H36        -1.8780   -6.0150   -0.3200 hc        1 MOL      0.006602
     89 H37        -3.9330   -4.2780   -1.5610 hc        1 MOL      0.075955
     90 H38        -3.4090   -5.7680   -2.2180 hc        1 MOL      0.075955
     91 H39        -1.2130   -5.7480   -3.0930 hn        1 MOL      0.318237
     92 H40        -0.2800   -4.2390   -3.3740 hn        1 MOL      0.318237
     93 N9         -0.5590   -3.8420    1.1840 n         1 MOL     -0.427293
     94 C30         0.6420   -2.9500    1.4140 c3        1 MOL     -0.006562
     95 C31         1.8250   -3.4290    0.5090 c         1 MOL      0.353804
     96 O16         2.4590   -4.4960    0.7370 o         1 MOL     -0.555630
     97 C32         1.0690   -2.8040    2.9100 c3        1 MOL      0.121452
     98 C33         2.4260   -2.1850    3.2320 c3        1 MOL     -0.214653
     99 C34        -0.0190   -1.9880    3.6270 c3        1 MOL     -0.214653
    100 H41        -0.3760   -4.8180    1.3890 hn        1 MOL      0.276806
    101 H42         0.4680   -1.9480    1.0270 h1        1 MOL      0.153930
    102 H43         1.1160   -3.8100    3.3300 hc        1 MOL     -0.006364
    103 H44         2.3850   -1.1700    2.8330 hc        1 MOL      0.048517
    104 H45         2.7510   -2.1780    4.2720 hc        1 MOL      0.048517
    105 H46         3.2320   -2.6780    2.6730 hc        1 MOL      0.048517
    106 H47         0.0510   -0.9770    3.2280 hc        1 MOL      0.048517
    107 H48        -0.9980   -2.4390    3.4770 hc        1 MOL      0.048517
    108 H49         0.2310   -2.0840    4.6910 hc        1 MOL      0.048517
    109 N10         2.0900   -2.7270   -0.5690 n         1 MOL     -0.073693
    110 C35         3.3290   -2.7270   -1.3760 c3        1 MOL      0.037748
    111 C36         4.4790   -2.0800   -0.5860 c         1 MOL      0.350942
    112 O17         4.2990   -1.6060    0.5690 o         1 MOL     -0.300668
    113 C37         3.0030   -1.8140   -2.5520 c3        1 MOL     -0.266586
    114 C38         1.9600   -2.4180   -3.4990 c         1 MOL      0.632876
    115 N11         0.7490   -2.0910   -3.3660 n         1 MOL     -0.577259
    116 O18         2.1950   -3.3040   -4.3230 o         1 MOL     -0.620139
    117 H50         1.4940   -1.9680   -0.8660 hn        1 MOL      0.030169
    118 H51         3.5470   -3.7610   -1.6470 h1        1 MOL      0.083521
    119 H52         3.8410   -1.5430   -3.1900 hc        1 MOL      0.062907
    120 H53         2.6680   -0.8470   -2.1810 hc        1 MOL      0.062907
    121 H54         0.4840   -1.3610   -2.7240 hn        1 MOL      0.320157
    122 H55         0.0500   -2.3030   -4.0690 hn        1 MOL      0.320157
    123 N12         5.7590   -2.1890   -1.0400 n         1 MOL     -0.464662
    124 C39         6.9200   -1.7280   -0.2570 c3        1 MOL      0.201140
    125 C40         6.9600   -0.1450   -0.1720 c         1 MOL      0.499629
    126 O19         7.1750    0.4620    0.8750 o         1 MOL     -0.507919
    127 C41         8.2060   -2.2170   -0.9240 c3        1 MOL     -0.215186
    128 C42         9.4750   -1.6430   -0.3250 ca        1 MOL      0.027412
    129 C43        10.0240   -2.1610    0.8480 ca        1 MOL     -0.151415
    130 C44        10.1170   -0.5290   -1.0050 ca        1 MOL     -0.151415
    131 C45        11.2870   -1.7220    1.2860 ca        1 MOL     -0.279224
    132 C46        11.3350    0.0260   -0.4840 ca        1 MOL     -0.279224
    133 C47        11.9310   -0.6470    0.6180 ca        1 MOL      0.369275
    134 O20        13.1440   -0.3170    1.0330 oh        1 MOL     -0.514352
    135 H56         5.9370   -2.7780   -1.8340 hn        1 MOL      0.281692
    136 H57         6.8700   -2.1600    0.7420 h1        1 MOL      0.070658
    137 H58         8.1650   -1.9450   -1.9810 hc        1 MOL      0.059603
    138 H59         8.2030   -3.2930   -0.7260 hc        1 MOL      0.059603
    139 H60         9.5280   -2.9370    1.4040 ha        1 MOL      0.148253
    140 H61         9.7280    0.0080   -1.8510 ha        1 MOL      0.148253
    141 H62        11.7340   -2.1600    2.1620 ha        1 MOL      0.151791
    142 H63        11.7290    0.8890   -1.0140 ha        1 MOL      0.151791
    143 H64        13.5120    0.4220    0.5340 ho        1 MOL      0.374991
    144 N13         6.5180    0.5330   -1.2190 n         1 MOL     -0.313881
    145 C48         6.4460    2.0010   -1.2610 c3        1 MOL     -0.024952
    146 C49         5.4460    2.5800   -0.1620 c         1 MOL      0.451379
    147 O21         5.5670    3.7170    0.3360 o         1 MOL     -0.517372
    148 C50         6.1190    2.4690   -2.6510 c3        1 MOL     -0.143796
    149 C51         4.6380    2.2420   -3.0680 c3        1 MOL     -0.237655
    150 C52         4.3380    2.9150   -4.4000 c         1 MOL      0.733921
    151 O22         3.8360    4.0720   -4.4170 o         1 MOL     -0.736021
    152 O23         4.5290    2.3180   -5.4890 o         1 MOL     -0.736021
    153 H65         6.3700   -0.0480   -2.0240 hn        1 MOL      0.255393
    154 H66         7.4220    2.4080   -1.0160 h1        1 MOL      0.067711
    155 H67         6.7750    2.0460   -3.4170 hc        1 MOL      0.060031
    156 H68         6.2380    3.5480   -2.6310 hc        1 MOL      0.060031
    157 H69         4.0220    2.6960   -2.2830 hc        1 MOL      0.060696
    158 H70         4.3800    1.1810   -2.9970 hc        1 MOL      0.060696
    159 N14         4.4820    1.7090    0.2740 n         1 MOL     -0.259557
    160 C53         3.5060    1.9710    1.3450 c3        1 MOL     -0.114979
    161 C54         4.0510    1.4930    2.6930 c         1 MOL      0.442159
    162 O24         3.7400    2.0850    3.7200 o         1 MOL     -0.544030
    163 C55         2.1440    1.2200    1.1220 c3        1 MOL      0.044417
    164 C56         1.3690    1.5990   -0.1730 c3        1 MOL      0.015512
    165 C57         0.1320    0.6920   -0.3890 c         1 MOL      0.541803
    166 O25        -0.9650    1.2150   -0.2270 o         1 MOL     -0.600794
    167 O26         0.2170   -0.3880   -1.0060 o         1 MOL     -0.600794
    168 H71         4.4630    0.8880   -0.3240 hn        1 MOL      0.201452
    169 H72         3.2970    3.0410    1.3310 h1        1 MOL      0.165012
    170 H73         1.4710    1.4150    1.9590 hc        1 MOL      0.029914
    171 H74         2.3980    0.1540    1.1390 hc        1 MOL      0.029914
    172 H75         1.9190    1.4770   -1.0970 hc        1 MOL      0.023915
    173 H76         1.1290    2.6700   -0.0990 hc        1 MOL      0.023915
    174 N15         5.0650    0.5570    2.7120 n         1 MOL      0.060435
    175 C58         5.7820    0.1090    3.8790 c3        1 MOL     -0.267766
    176 H77         5.0820   -0.3360    4.5860 h1        1 MOL      0.086111
    177 H78         6.5250   -0.6330    3.5870 h1        1 MOL      0.086111
    178 H79         6.2800    0.9580    4.3480 h1        1 MOL      0.086111
    179 H80         5.2870    0.1330    1.8290 hn        1 MOL     -0.059630
    180 Ca1        -2.5480   -0.4930   -1.3290 Ca        1 MOL      1.746404
    181 O27        -1.6290    0.1700   -3.7370 oh        1 MOL     -0.960483
    182 H81        -1.2670    0.1400   -4.6290 ho        1 MOL      0.439543
    183 H82        -2.3750    0.7740   -3.8000 ho        1 MOL      0.439543
@<TRIPOS>BOND
     1    1    2 1   
     2    1    4 1   
     3    1    5 1   
     4    1    6 1   
     5    2    3 2   
     6    2    7 1   
     7    7    8 1   
     8    7   15 1   
     9    8    9 1   
    10    8   11 1   
    11    8   16 1   
    12    9   10 2   
    13    9   19 1   
    14   11   12 1   
    15   11   17 1   
    16   11   18 1   
    17   12   13 1   
    18   12   14 1   
    19   19   20 1   
    20   19   27 1   
    21   20   21 1   
    22   20   23 1   
    23   20   28 1   
    24   21   22 2   
    25   21   38 1   
    26   23   24 1   
    27   23   25 1   
    28   23   29 1   
    29   24   26 1   
    30   24   30 1   
    31   24   31 1   
    32   25   32 1   
    33   25   33 1   
    34   25   34 1   
    35   26   35 1   
    36   26   36 1   
    37   26   37 1   
    38   38   39 1   
    39   38   46 1   
    40   39   40 1   
    41   39   42 1   
    42   39   47 1   
    43   40   41 2   
    44   40   50 1   
    45   42   43 1   
    46   42   48 1   
    47   42   49 1   
    48   43   44 1   
    49   43   45 1   
    50   50   51 1   
    51   50   54 1   
    52   51   52 1   
    53   51   55 1   
    54   51   56 1   
    55   52   53 2   
    56   52   57 1   
    57   57   58 1   
    58   57   65 1   
    59   58   59 1   
    60   58   61 1   
    61   58   66 1   
    62   59   60 2   
    63   59   69 1   
    64   61   62 1   
    65   61   67 1   
    66   61   68 1   
    67   62   63 1   
    68   62   64 1   
    69   69   70 1   
    70   69   73 1   
    71   70   71 1   
    72   70   74 1   
    73   70   75 1   
    74   71   72 2   
    75   71   76 1   
    76   76   77 1   
    77   76   85 1   
    78   77   78 1   
    79   77   80 1   
    80   77   86 1   
    81   78   79 2   
    82   78   93 1   
    83   80   81 1   
    84   80   87 1   
    85   80   88 1   
    86   81   82 1   
    87   81   89 1   
    88   81   90 1   
    89   82   83 1   
    90   82   84 2   
    91   83   91 1   
    92   83   92 1   
    93   93   94 1   
    94   93  100 1   
    95   94   95 1   
    96   94   97 1   
    97   94  101 1   
    98   95   96 2   
    99   95  109 1   
   100   97   98 1   
   101   97   99 1   
   102   97  102 1   
   103   98  103 1   
   104   98  104 1   
   105   98  105 1   
   106   99  106 1   
   107   99  107 1   
   108   99  108 1   
   109  109  110 1   
   110  109  117 1   
   111  110  111 1   
   112  110  113 1   
   113  110  118 1   
   114  111  112 2   
   115  111  123 1   
   116  113  114 1   
   117  113  119 1   
   118  113  120 1   
   119  114  115 1   
   120  114  116 2   
   121  115  121 1   
   122  115  122 1   
   123  123  124 1   
   124  123  135 1   
   125  124  125 1   
   126  124  127 1   
   127  124  136 1   
   128  125  126 2   
   129  125  144 1   
   130  127  128 1   
   131  127  137 1   
   132  127  138 1   
   133  128  129 ar  
   134  128  130 ar  
   135  129  131 ar  
   136  129  139 1   
   137  130  132 ar  
   138  130  140 1   
   139  131  133 ar  
   140  131  141 1   
   141  132  133 ar  
   142  132  142 1   
   143  133  134 1   
   144  134  143 1   
   145  144  145 1   
   146  144  153 1   
   147  145  146 1   
   148  145  148 1   
   149  145  154 1   
   150  146  147 2   
   151  146  159 1   
   152  148  149 1   
   153  148  155 1   
   154  148  156 1   
   155  149  150 1   
   156  149  157 1   
   157  149  158 1   
   158  150  151 1   
   159  150  152 1   
   160  159  160 1   
   161  159  168 1   
   162  160  161 1   
   163  160  163 1   
   164  160  169 1   
   165  161  162 2   
   166  161  174 1   
   167  163  164 1   
   168  163  170 1   
   169  163  171 1   
   170  164  165 1   
   171  164  172 1   
   172  164  173 1   
   173  165  166 1   
   174  165  167 1   
   175  174  175 1   
   176  174  179 1   
   177  175  176 1   
   178  175  177 1   
   179  175  178 1   
   180  181  182 1   
   181  181  183 1   
@<TRIPOS>SUBSTRUCTURE
     1 MOL         1 TEMP              0 ****  ****    0 ROOT
