@<TRIPOS>MOLECULE
MOL
  179   176     1     0     0
SMALL
resp


@<TRIPOS>ATOM
      1 C1          2.5340    2.5350    5.3630 c3        1 MOL     -0.196545
      2 C2          1.9700    2.2880    3.9420 c         1 MOL      0.597875
      3 O1          2.7350    1.9660    2.9700 o         1 MOL     -0.586492
      4 H1          3.1890    3.4070    5.3470 hc        1 MOL      0.055830
      5 H2          1.7110    2.7120    6.0560 hc        1 MOL      0.055830
      6 H3          3.1010    1.6630    5.6860 hc        1 MOL      0.055830
      7 N1          0.6510    2.3000    3.8890 n         1 MOL     -0.447728
      8 C3         -0.1000    2.0530    2.6630 c3        1 MOL     -0.018174
      9 C4         -0.1040    3.5120    1.9490 c         1 MOL      0.373304
     10 O2         -1.0510    4.3360    2.2300 o         1 MOL     -0.459315
     11 C5         -1.5030    1.5620    2.9330 c3        1 MOL     -0.257327
     12 C6         -2.5350    1.3750    1.7110 c         1 MOL      1.110331
     13 O3         -3.6870    1.0160    1.9740 o         1 MOL     -0.828177
     14 O4         -2.0800    1.7110    0.5630 o         1 MOL     -0.828177
     15 H4          0.1160    2.4800    4.7260 hn        1 MOL      0.338014
     16 H5          0.4020    1.3320    2.0200 h1        1 MOL      0.034473
     17 H6         -2.0490    2.2560    3.5600 hc        1 MOL      0.047812
     18 H7         -1.5260    0.5790    3.4070 hc        1 MOL      0.047812
     19 N2          0.9100    3.8590    1.1330 n         1 MOL     -0.261113
     20 C7          1.0630    5.2130    0.5060 c3        1 MOL     -0.058351
     21 C8         -0.0560    5.6360   -0.4320 c         1 MOL      0.402821
     22 O5         -0.4410    6.7860   -0.4320 o         1 MOL     -0.542230
     23 C9          2.3810    5.1980   -0.2310 c3        1 MOL     -0.293108
     24 C10         3.7130    5.1370    0.5230 c3        1 MOL      0.415217
     25 C11         5.0440    5.2100   -0.3710 c3        1 MOL     -0.133765
     26 C12         5.1860    6.6660   -1.0650 c3        1 MOL      0.027599
     27 N3          5.2720    7.6800   -0.0100 n4        1 MOL     -0.376309
     28 H8          1.6840    3.2070    1.1150 hn        1 MOL      0.335131
     29 H9          1.1170    5.9140    1.3340 h1        1 MOL      0.103253
     30 H10         2.4680    6.1220   -0.8050 hc        1 MOL      0.077302
     31 H11         2.3950    4.3680   -0.9330 hc        1 MOL      0.077302
     32 H12         3.7260    4.2310    1.1150 hc        1 MOL     -0.106205
     33 H13         3.8360    5.9730    1.2200 hc        1 MOL     -0.106205
     34 H14         5.0260    4.4020   -1.1100 hc        1 MOL      0.069914
     35 H15         5.9360    5.1280    0.2400 hc        1 MOL      0.069914
     36 H16         4.2890    6.8610   -1.6570 hx        1 MOL      0.080398
     37 H17         6.0640    6.7250   -1.7090 hx        1 MOL      0.080398
     38 H18         5.4550    8.5600   -0.4670 hn        1 MOL      0.335329
     39 H19         4.4010    7.7390    0.4880 hn        1 MOL      0.335329
     40 H20         6.0700    7.5000    0.5810 hn        1 MOL      0.335329
     41 N4         -0.6470    4.7330   -1.1830 n         1 MOL     -0.171567
     42 C13        -1.7420    5.1140   -2.0640 c3        1 MOL      0.193363
     43 C14        -3.1560    5.0340   -1.3290 c         1 MOL      0.337308
     44 O6         -4.1420    5.6030   -1.8060 o         1 MOL     -0.532867
     45 C15        -1.6320    4.2520   -3.3650 c3        1 MOL     -0.423750
     46 C16        -1.4820    2.7470   -3.0250 c         1 MOL      0.860408
     47 O7         -2.5160    2.1470   -2.6940 o         1 MOL     -0.735116
     48 O8         -0.3480    2.2440   -2.9430 o         1 MOL     -0.735116
     49 H21        -0.4150    3.7510   -1.1050 hn        1 MOL      0.132079
     50 H22        -1.6250    6.1560   -2.3510 h1        1 MOL      0.078114
     51 H23        -0.6900    4.6540   -3.7380 hc        1 MOL      0.088282
     52 H24        -2.5350    4.4670   -3.9260 hc        1 MOL      0.088282
     53 N5         -3.2320    4.3890   -0.1050 n         1 MOL      0.057921
     54 C17        -4.3730    4.4880    0.8210 c3        1 MOL     -0.179868
     55 C18        -5.5050    3.5850    0.4400 c         1 MOL      0.592009
     56 O9         -6.5590    3.7080    1.0340 o         1 MOL     -0.572269
     57 H25        -2.3650    4.0380    0.2660 hn        1 MOL     -0.005524
     58 H26        -4.7210    5.5140    0.9660 h1        1 MOL      0.096075
     59 H27        -4.0140    4.1090    1.7820 h1        1 MOL      0.096075
     60 N6         -5.2790    2.5930   -0.5130 n         1 MOL     -0.337662
     61 C19        -6.3510    1.7870   -1.1970 c3        1 MOL      0.011923
     62 C20        -6.8690    0.6000   -0.2820 c         1 MOL      0.415003
     63 O10        -7.8140   -0.0440   -0.6360 o         1 MOL     -0.502675
     64 C21        -5.8410    1.3110   -2.5760 c3        1 MOL     -0.261292
     65 C22        -5.0390    0.0500   -2.5400 c         1 MOL      0.529858
     66 N7         -5.4780   -0.9600   -3.3270 n         1 MOL     -0.598259
     67 O11        -4.0610   -0.0440   -1.8300 o         1 MOL     -0.522169
     68 H28        -4.3130    2.3600   -0.6990 hn        1 MOL      0.191454
     69 H29        -7.2360    2.4160   -1.2800 h1        1 MOL      0.112182
     70 H30        -5.2870    2.1400   -3.0190 hc        1 MOL      0.113329
     71 H31        -6.7190    1.1850   -3.2050 hc        1 MOL      0.113329
     72 H32        -6.2200   -0.7200   -3.9660 hn        1 MOL      0.305326
     73 H33        -5.0430   -1.8650   -3.4040 hn        1 MOL      0.305326
     74 N8         -6.2210    0.3490    0.8580 n         1 MOL     -0.344505
     75 C23        -6.6030   -0.6570    1.8340 c3        1 MOL      0.151089
     76 C24        -5.7360   -1.9230    1.9240 c         1 MOL      0.348687
     77 O12        -6.1600   -2.9400    2.4620 o         1 MOL     -0.528411
     78 H34        -5.4510    0.8810    1.2470 hn        1 MOL      0.341546
     79 H35        -7.6520   -0.9650    1.8130 h1        1 MOL      0.033153
     80 H36        -6.6580   -0.2020    2.8280 h1        1 MOL      0.033153
     81 N9         -4.5730   -1.8810    1.3330 n         1 MOL     -0.103113
     82 C25        -3.5540   -2.9530    1.3120 c3        1 MOL      0.169755
     83 C26        -2.1380   -2.2760    1.1370 c         1 MOL      0.321238
     84 O13        -1.9090   -1.2700    0.5300 o         1 MOL     -0.631407
     85 C27        -3.7540   -3.9020    0.1520 c3        1 MOL      0.144348
     86 C28        -5.0590   -4.6950    0.0460 ca        1 MOL     -0.116667
     87 C29        -6.1790   -4.0920   -0.4140 ca        1 MOL     -0.050223
     88 C30        -5.0320   -6.0920    0.2900 ca        1 MOL     -0.050223
     89 C31        -7.4110   -4.8020   -0.5810 ca        1 MOL     -0.381451
     90 C32        -6.1970   -6.8080    0.0590 ca        1 MOL     -0.381451
     91 C33        -7.4270   -6.1310   -0.2180 ca        1 MOL      0.487321
     92 O14        -8.5560   -6.8030   -0.3480 oh        1 MOL     -0.466967
     93 H37        -4.2260   -1.0040    0.9740 hn        1 MOL      0.100497
     94 H38        -3.5570   -3.5720    2.2020 h1        1 MOL      0.007249
     95 H39        -2.9390   -4.6240    0.2160 hc        1 MOL     -0.031047
     96 H40        -3.7550   -3.3460   -0.7860 hc        1 MOL     -0.031047
     97 H41        -6.1410   -3.0430   -0.6560 ha        1 MOL      0.105185
     98 H42        -4.1470   -6.6950    0.4270 ha        1 MOL      0.105185
     99 H43        -8.3190   -4.3650   -0.9600 ha        1 MOL      0.167273
    100 H44        -6.1670   -7.8890    0.0840 ha        1 MOL      0.167273
    101 H45        -8.4240   -7.6960   -0.0250 ho        1 MOL      0.327147
    102 N10        -1.0530   -2.9420    1.6520 n         1 MOL     -0.293819
    103 C34         0.3370   -2.4590    1.6000 c3        1 MOL      0.147790
    104 C35         1.0240   -3.4410    0.6880 c         1 MOL      0.321230
    105 O15         0.9630   -4.6460    0.9160 o         1 MOL     -0.540457
    106 C36         1.0140   -2.4770    2.9760 c3        1 MOL      0.420072
    107 C37         0.3700   -1.7370    4.0980 c3        1 MOL      0.202101
    108 C38         2.5010   -1.9300    2.7080 c3        1 MOL     -0.629659
    109 C39         0.8220   -2.1480    5.5220 c3        1 MOL     -0.140438
    110 H46        -1.1140   -3.8030    2.1820 hn        1 MOL      0.236400
    111 H47         0.4090   -1.4630    1.1760 h1        1 MOL      0.006235
    112 H48         1.0350   -3.5110    3.3040 hc        1 MOL     -0.095802
    113 H49        -0.6810   -2.0040    4.0280 hc        1 MOL     -0.083082
    114 H50         0.5290   -0.6850    3.8540 hc        1 MOL     -0.083082
    115 H51         2.4520   -1.0030    2.1500 hc        1 MOL      0.120810
    116 H52         3.0790   -1.6800    3.5990 hc        1 MOL      0.120810
    117 H53         3.0880   -2.6540    2.1450 hc        1 MOL      0.120810
    118 H54         1.8990   -2.2310    5.6900 hc        1 MOL      0.027501
    119 H55         0.4890   -1.3490    6.1830 hc        1 MOL      0.027501
    120 H56         0.3900   -3.1020    5.8400 hc        1 MOL      0.027501
    121 N11         1.8140   -2.9860   -0.3000 n         1 MOL      0.102853
    122 C40         2.6720   -3.9100   -1.0360 c3        1 MOL     -0.230485
    123 C41         4.1990   -3.9280   -0.5910 c         1 MOL      0.529453
    124 O16         4.6490   -3.0140    0.0790 o         1 MOL     -0.377685
    125 C42         2.6390   -3.6450   -2.5590 c3        1 MOL     -0.128734
    126 O17         3.1490   -2.3450   -2.8890 oh        1 MOL     -0.579610
    127 H57         1.6850   -2.0330   -0.6220 hn        1 MOL      0.110254
    128 H58         2.4020   -4.9580   -0.9390 h1        1 MOL      0.088389
    129 H59         1.6660   -3.7380   -3.0380 h1        1 MOL      0.116837
    130 H60         3.2600   -4.3820   -3.0760 h1        1 MOL      0.116837
    131 H61         2.5020   -1.6450   -2.7680 ho        1 MOL      0.401124
    132 N12         4.9930   -4.9580   -0.9190 n         1 MOL     -0.466372
    133 C43         6.4030   -4.9840   -0.6070 c3        1 MOL      0.170627
    134 C44         7.3190   -3.8360   -1.0170 c         1 MOL      0.408912
    135 O18         8.2620   -3.4380   -0.2150 o         1 MOL     -0.514552
    136 C45         7.0560   -6.2830   -0.9490 c3        1 MOL     -0.364893
    137 H62         4.6850   -5.6970   -1.5330 hn        1 MOL      0.302590
    138 H63         6.4130   -4.9750    0.4840 h1        1 MOL      0.068237
    139 H64         8.0600   -6.2940   -0.5420 hc        1 MOL      0.107167
    140 H65         6.4220   -7.0800   -0.5550 hc        1 MOL      0.107167
    141 H66         7.0320   -6.3610   -2.0400 hc        1 MOL      0.107167
    142 N13         6.9360   -3.1730   -2.0810 n         1 MOL     -0.399015
    143 C46         7.5800   -1.9060   -2.4280 c3        1 MOL      0.181428
    144 C47         7.3120   -0.7580   -1.4310 c         1 MOL      0.203267
    145 O19         8.2390    0.0770   -1.1620 o         1 MOL     -0.494272
    146 C48         7.1350   -1.4620   -3.8750 c3        1 MOL     -0.332371
    147 H67         6.2210   -3.5530   -2.6770 hn        1 MOL      0.281734
    148 H68         8.6570   -2.0700   -2.4680 h1        1 MOL      0.083617
    149 H69         6.0820   -1.1870   -3.8170 hc        1 MOL      0.092478
    150 H70         7.8730   -0.6960   -4.1350 hc        1 MOL      0.092478
    151 H71         7.3530   -2.2940   -4.5460 hc        1 MOL      0.092478
    152 N14         6.0980   -0.6930   -0.8770 n         1 MOL     -0.001391
    153 C49         5.5670    0.3100    0.0820 c3        1 MOL     -0.092180
    154 C50         6.0880   -0.0040    1.4400 c         1 MOL      0.379353
    155 O20         6.4510    0.9280    2.1760 o         1 MOL     -0.551332
    156 C51         4.0160    0.3620   -0.0360 c3        1 MOL      0.034021
    157 C52         3.4690    0.8440   -1.3750 c3        1 MOL     -0.411412
    158 C53         1.9330    0.6110   -1.4250 c         1 MOL      0.824029
    159 O21         1.2480    1.0320   -0.4830 o         1 MOL     -0.735156
    160 O22         1.4490   -0.1800   -2.2110 o         1 MOL     -0.735156
    161 H72         5.4590   -1.3910   -1.2340 hn        1 MOL      0.266568
    162 H73         5.9140    1.3120   -0.1710 h1        1 MOL      0.080875
    163 H74         3.5480    0.9330    0.7690 hc        1 MOL      0.107037
    164 H75         3.6900   -0.6760    0.0600 hc        1 MOL      0.107037
    165 H76         3.9590    0.2920   -2.1810 hc        1 MOL      0.063033
    166 H77         3.6990    1.9030   -1.3780 hc        1 MOL      0.063033
    167 N15         6.3390   -1.2810    1.7830 n         1 MOL      0.026250
    168 C54         7.0770   -1.7380    2.9400 c3        1 MOL     -0.344500
    169 H78         7.3320   -0.8840    3.5690 h1        1 MOL      0.122792
    170 H79         6.4650   -2.4380    3.5100 h1        1 MOL      0.122792
    171 H80         7.9920   -2.2350    2.6160 h1        1 MOL      0.122792
    172 H81         5.9850   -1.9440    1.0910 hn        1 MOL      0.054485
    173 Ca1        -1.2040    0.1800   -1.4320 Ca        1 MOL      1.776180
    174 O23        -0.7310   -2.2760   -2.0500 oh        1 MOL     -0.850527
    175 H82        -0.3990   -2.0870   -2.9280 ho        1 MOL      0.409038
    176 H83        -0.8180   -3.2260   -2.0250 ho        1 MOL      0.409038
    177 O24        -1.9580   -0.3880   -4.0910 oh        1 MOL     -0.850527
    178 H84        -1.6180   -0.3030   -4.9780 ho        1 MOL      0.409038
    179 H85        -2.8270   -0.7650   -4.1990 ho        1 MOL      0.409038
@<TRIPOS>BOND
     1    1    2 1   
     2    1    4 1   
     3    1    5 1   
     4    1    6 1   
     5    2    3 2   
     6    2    7 1   
     7    7    8 1   
     8    7   15 1   
     9    8    9 1   
    10    8   11 1   
    11    8   16 1   
    12    9   10 2   
    13    9   19 1   
    14   11   12 1   
    15   11   17 1   
    16   11   18 1   
    17   12   13 1   
    18   12   14 1   
    19   19   20 1   
    20   19   28 1   
    21   20   21 1   
    22   20   23 1   
    23   20   29 1   
    24   21   22 2   
    25   21   41 1   
    26   23   24 1   
    27   23   30 1   
    28   23   31 1   
    29   24   25 1   
    30   24   32 1   
    31   24   33 1   
    32   25   26 1   
    33   25   34 1   
    34   25   35 1   
    35   26   27 1   
    36   26   36 1   
    37   26   37 1   
    38   27   38 1   
    39   27   39 1   
    40   27   40 1   
    41   41   42 1   
    42   41   49 1   
    43   42   43 1   
    44   42   45 1   
    45   42   50 1   
    46   43   44 2   
    47   43   53 1   
    48   45   46 1   
    49   45   51 1   
    50   45   52 1   
    51   46   47 1   
    52   46   48 1   
    53   53   54 1   
    54   53   57 1   
    55   54   55 1   
    56   54   58 1   
    57   54   59 1   
    58   55   56 2   
    59   55   60 1   
    60   60   61 1   
    61   60   68 1   
    62   61   62 1   
    63   61   64 1   
    64   61   69 1   
    65   62   63 2   
    66   62   74 1   
    67   64   65 1   
    68   64   70 1   
    69   64   71 1   
    70   65   66 1   
    71   65   67 2   
    72   66   72 1   
    73   66   73 1   
    74   74   75 1   
    75   74   78 1   
    76   75   76 1   
    77   75   79 1   
    78   75   80 1   
    79   76   77 2   
    80   76   81 1   
    81   81   82 1   
    82   81   93 1   
    83   82   83 1   
    84   82   85 1   
    85   82   94 1   
    86   83   84 2   
    87   83  102 1   
    88   85   86 1   
    89   85   95 1   
    90   85   96 1   
    91   86   87 ar  
    92   86   88 ar  
    93   87   89 ar  
    94   87   97 1   
    95   88   90 ar  
    96   88   98 1   
    97   89   91 ar  
    98   89   99 1   
    99   90   91 ar  
   100   90  100 1   
   101   91   92 1   
   102   92  101 1   
   103  102  103 1   
   104  102  110 1   
   105  103  104 1   
   106  103  106 1   
   107  103  111 1   
   108  104  105 2   
   109  104  121 1   
   110  106  107 1   
   111  106  108 1   
   112  106  112 1   
   113  107  109 1   
   114  107  113 1   
   115  107  114 1   
   116  108  115 1   
   117  108  116 1   
   118  108  117 1   
   119  109  118 1   
   120  109  119 1   
   121  109  120 1   
   122  121  122 1   
   123  121  127 1   
   124  122  123 1   
   125  122  125 1   
   126  122  128 1   
   127  123  124 2   
   128  123  132 1   
   129  125  126 1   
   130  125  129 1   
   131  125  130 1   
   132  126  131 1   
   133  132  133 1   
   134  132  137 1   
   135  133  134 1   
   136  133  136 1   
   137  133  138 1   
   138  134  135 2   
   139  134  142 1   
   140  136  139 1   
   141  136  140 1   
   142  136  141 1   
   143  142  143 1   
   144  142  147 1   
   145  143  144 1   
   146  143  146 1   
   147  143  148 1   
   148  144  145 2   
   149  144  152 1   
   150  146  149 1   
   151  146  150 1   
   152  146  151 1   
   153  152  153 1   
   154  152  161 1   
   155  153  154 1   
   156  153  156 1   
   157  153  162 1   
   158  154  155 2   
   159  154  167 1   
   160  156  157 1   
   161  156  163 1   
   162  156  164 1   
   163  157  158 1   
   164  157  165 1   
   165  157  166 1   
   166  158  159 1   
   167  158  160 1   
   168  167  168 1   
   169  167  172 1   
   170  168  169 1   
   171  168  170 1   
   172  168  171 1   
   173  174  175 1   
   174  174  176 1   
   175  177  178 1   
   176  177  179 1   
@<TRIPOS>SUBSTRUCTURE
     1 MOL         1 TEMP              0 ****  ****    0 ROOT
