@<TRIPOS>MOLECULE
MOL
  189   185     1     0     0
SMALL
resp


@<TRIPOS>ATOM
      1 C1          0.2390    2.3290    5.8280 c3        1 MOL     -0.366765
      2 C2         -0.1450    2.2130    4.3380 c         1 MOL      0.808835
      3 O1          0.6390    2.6010    3.4530 o         1 MOL     -0.629042
      4 H1         -0.4590    1.7450    6.4280 hc        1 MOL      0.086764
      5 H2          1.2490    1.9480    5.9740 hc        1 MOL      0.086764
      6 H3          0.1950    3.3740    6.1350 hc        1 MOL      0.086764
      7 N1         -1.3120    1.7060    4.0230 n         1 MOL     -0.624986
      8 C3         -1.8260    1.6110    2.6280 c3        1 MOL     -0.007217
      9 C4         -2.3450    3.0120    2.2450 c         1 MOL      0.660986
     10 O2         -3.0310    3.6460    3.0780 o         1 MOL     -0.588787
     11 C5         -2.9320    0.5320    2.7290 c3        1 MOL     -0.271272
     12 C6         -3.6260    0.3100    1.3300 c         1 MOL      0.784108
     13 O3         -4.6800   -0.3580    1.3920 o         1 MOL     -0.664423
     14 O4         -3.2540    0.8760    0.2700 o         1 MOL     -0.664423
     15 H4         -1.8360    1.2910    4.7780 hn        1 MOL      0.346207
     16 H5         -1.1400    1.2260    1.8710 h1        1 MOL      0.103350
     17 H6         -3.7250    0.7880    3.4340 hc        1 MOL      0.078108
     18 H7         -2.6670   -0.4860    3.0040 hc        1 MOL      0.078108
     19 N2         -2.0350    3.4910    1.0130 n         1 MOL     -0.642200
     20 C7         -2.4600    4.7900    0.4510 c3        1 MOL      0.088224
     21 C8         -3.5940    4.7020   -0.6430 c         1 MOL      0.441079
     22 O5         -4.0520    5.8190   -0.9910 o         1 MOL     -0.579003
     23 C9         -1.2150    5.5110   -0.0960 c3        1 MOL      0.187960
     24 C10        -0.1540    5.8290    0.9840 c3        1 MOL     -0.202226
     25 C11        -0.6100    6.5140    2.2620 c3        1 MOL     -0.229075
     26 C12         0.6280    6.7520    3.2050 c3        1 MOL      0.165787
     27 N3          0.2420    7.2620    4.5460 n4        1 MOL     -0.386505
     28 H8         -1.6360    2.7920    0.3940 hn        1 MOL      0.465336
     29 H9         -2.8380    5.4810    1.1990 h1        1 MOL      0.035036
     30 H10        -1.3980    6.4540   -0.6320 hc        1 MOL     -0.012817
     31 H11        -0.7080    4.8390   -0.7860 hc        1 MOL     -0.012817
     32 H12         0.6810    6.2640    0.4430 hc        1 MOL      0.095336
     33 H13         0.2340    4.8900    1.3890 hc        1 MOL      0.095336
     34 H14        -1.2530    5.9520    2.9410 hc        1 MOL      0.091793
     35 H15        -1.0780    7.4810    2.0550 hc        1 MOL      0.091793
     36 H16         1.3590    7.3960    2.7230 hx        1 MOL      0.043206
     37 H17         1.1190    5.7880    3.2920 hx        1 MOL      0.043206
     38 H18        -0.5890    7.8400    4.4400 hn        1 MOL      0.328768
     39 H19         0.1320    6.4920    5.1990 hn        1 MOL      0.328768
     40 H20         0.9510    7.8690    4.9290 hn        1 MOL      0.328768
     41 N4         -4.0090    3.5280   -1.0050 n         1 MOL     -0.037245
     42 C13        -5.1960    3.3990   -1.9230 c3        1 MOL     -0.350378
     43 C14        -6.4840    2.8850   -1.3720 c         1 MOL      0.594200
     44 O6         -7.5670    3.0200   -1.9560 o         1 MOL     -0.528338
     45 C15        -4.7540    2.5810   -3.0990 c3        1 MOL      0.393227
     46 C16        -3.2410    2.6630   -3.5160 c         1 MOL      0.407493
     47 O7         -2.8900    3.6560   -4.1720 o         1 MOL     -0.591537
     48 O8         -2.4490    1.8290   -2.9690 o         1 MOL     -0.591537
     49 H21        -3.4910    2.7400   -0.6520 hn        1 MOL      0.096232
     50 H22        -5.3250    4.3710   -2.4100 h1        1 MOL      0.139676
     51 H23        -5.3420    2.8830   -3.9710 hc        1 MOL     -0.073907
     52 H24        -5.0000    1.5460   -2.8560 hc        1 MOL     -0.073907
     53 N5         -6.4740    2.2550   -0.2180 n         1 MOL     -0.435481
     54 C17        -7.5380    1.2160    0.1990 c3        1 MOL      0.056322
     55 C18        -7.6840    0.0130   -0.7070 c         1 MOL      0.319965
     56 O9         -8.7140   -0.0890   -1.3900 o         1 MOL     -0.512232
     57 H25        -5.5730    2.1030    0.2270 hn        1 MOL      0.232095
     58 H26        -8.4750    1.7580    0.3080 h1        1 MOL      0.058385
     59 H27        -7.3550    0.9300    1.2350 h1        1 MOL      0.058385
     60 N6         -6.7140   -0.8800   -0.7710 n         1 MOL      0.026180
     61 C19        -6.7510   -2.0940   -1.5350 c3        1 MOL     -0.237404
     62 C20        -6.5590   -3.4650   -0.8320 c         1 MOL      0.478928
     63 O10        -6.4870   -4.5080   -1.4680 o         1 MOL     -0.504830
     64 C21        -5.8190   -2.0300   -2.7470 c3        1 MOL      0.120442
     65 C22        -4.4090   -1.6710   -2.4050 c         1 MOL      0.757271
     66 O11        -3.8280   -0.8700   -3.1500 o         1 MOL     -0.817217
     67 O12        -3.9090   -2.1010   -1.3490 o         1 MOL     -0.817217
     68 H28        -6.0090   -0.7830   -0.0460 hn        1 MOL      0.101624
     69 H29        -7.7550   -2.3060   -1.9040 h1        1 MOL      0.105252
     70 H30        -6.2450   -1.3930   -3.5190 hc        1 MOL      0.004127
     71 H31        -5.7290   -2.9910   -3.2490 hc        1 MOL      0.004127
     72 N7         -6.4040   -3.4790    0.5160 n         1 MOL     -0.357105
     73 C23        -6.2790   -4.6840    1.4670 c3        1 MOL     -0.175467
     74 C24        -4.7840   -4.9950    1.5700 c         1 MOL      0.548543
     75 O13        -4.3950   -6.0070    2.0650 o         1 MOL     -0.555212
     76 H32        -6.4220   -2.5360    0.8980 hn        1 MOL      0.232687
     77 H33        -6.7240   -5.5610    1.0090 h1        1 MOL      0.138089
     78 H34        -6.7290   -4.4900    2.4450 h1        1 MOL      0.138089
     79 N8         -3.8890   -4.1890    0.9450 n         1 MOL     -0.236450
     80 C25        -2.4520   -4.5360    0.7030 c3        1 MOL     -0.479347
     81 C26        -1.4790   -3.3500    0.9160 c         1 MOL      0.781133
     82 O14        -1.6170   -2.3100    0.2330 o         1 MOL     -0.616223
     83 C27        -2.2940   -5.3840   -0.6150 c3        1 MOL      0.496297
     84 C28        -3.0290   -6.7490   -0.6560 c3        1 MOL     -0.454663
     85 O15        -2.9300   -4.6670   -1.6250 oh        1 MOL     -0.638641
     86 H35        -4.2650   -3.3440    0.5320 hn        1 MOL      0.240124
     87 H36        -2.2640   -5.3520    1.3960 h1        1 MOL      0.155361
     88 H37        -1.2690   -5.4720   -0.9680 h1        1 MOL     -0.025246
     89 H38        -3.3480   -3.8880   -1.2570 ho        1 MOL      0.428484
     90 H39        -3.0010   -7.1320    0.3560 hc        1 MOL      0.128788
     91 H40        -4.0670   -6.6160   -0.9450 hc        1 MOL      0.128788
     92 H41        -2.4590   -7.4580   -1.2680 hc        1 MOL      0.128788
     93 N9         -0.4130   -3.6230    1.6400 n         1 MOL     -0.592574
     94 C29         0.7330   -2.6730    1.8430 c3        1 MOL      0.013065
     95 C30         1.9150   -3.2880    1.0690 c         1 MOL      0.405315
     96 O16         2.3310   -4.4640    1.3290 o         1 MOL     -0.543358
     97 C31         1.0960   -2.5340    3.3550 c3        1 MOL      0.197239
     98 C32        -0.0930   -2.0260    4.1890 c3        1 MOL      0.117496
     99 C33         2.2880   -1.5770    3.5180 c3        1 MOL     -0.455476
    100 C34         0.0620   -2.3540    5.6590 c3        1 MOL     -0.200430
    101 H42        -0.3200   -4.4230    2.2400 hn        1 MOL      0.327464
    102 H43         0.5390   -1.6730    1.4480 h1        1 MOL      0.103913
    103 H44         1.3340   -3.5510    3.6500 hc        1 MOL      0.012825
    104 H45        -1.0070   -2.5350    3.8930 hc        1 MOL     -0.009679
    105 H46        -0.3570   -0.9750    4.0810 hc        1 MOL     -0.009679
    106 H47         2.4560   -1.4110    4.5810 hc        1 MOL      0.094032
    107 H48         3.1430   -1.9000    2.9240 hc        1 MOL      0.094032
    108 H49         2.0740   -0.5800    3.1310 hc        1 MOL      0.094032
    109 H50        -0.7090   -1.8020    6.1830 hc        1 MOL      0.039818
    110 H51         0.0070   -3.4230    5.8880 hc        1 MOL      0.039818
    111 H52         1.0150   -2.0650    6.1110 hc        1 MOL      0.039818
    112 N10         2.5190   -2.6140    0.0690 n         1 MOL     -0.141301
    113 C35         3.7420   -2.9400   -0.6460 c3        1 MOL      0.076863
    114 C36         4.9670   -2.5640    0.1680 c         1 MOL      0.333222
    115 O17         5.0020   -1.8440    1.1790 o         1 MOL     -0.352580
    116 C37         3.6140   -2.2730   -2.0460 c3        1 MOL      0.033343
    117 C38         2.3720   -2.5730   -2.8450 c3        1 MOL     -0.150306
    118 O18         3.7300   -0.9070   -1.9370 oh        1 MOL     -0.328948
    119 H53         2.2100   -1.6730   -0.1210 hn        1 MOL      0.253853
    120 H54         3.8330   -4.0160   -0.8010 h1        1 MOL      0.071569
    121 H55         4.4480   -2.6750   -2.6300 h1        1 MOL      0.009128
    122 H56         3.4540   -0.5270   -2.7810 ho        1 MOL      0.343405
    123 H57         2.4460   -2.0540   -3.7930 hc        1 MOL      0.044079
    124 H58         2.3690   -3.6400   -3.0800 hc        1 MOL      0.044079
    125 H59         1.4950   -2.3780   -2.2240 hc        1 MOL      0.044079
    126 N11         6.1140   -3.0030   -0.3730 n         1 MOL     -0.278691
    127 C39         7.4780   -2.7440    0.1620 c3        1 MOL      0.006968
    128 C40         7.7290   -1.2880    0.0160 c         1 MOL      0.183702
    129 O19         8.4260   -0.6780    0.8460 o         1 MOL     -0.431880
    130 C41         8.5070   -3.5330   -0.5790 c3        1 MOL      0.506199
    131 C42         9.8070   -3.5790    0.2320 c3        1 MOL     -0.363149
    132 O20         8.1320   -4.9180   -0.7880 oh        1 MOL     -0.662459
    133 H60         6.1090   -3.5480   -1.2290 hn        1 MOL      0.206512
    134 H61         7.4290   -2.9700    1.2290 h1        1 MOL      0.135219
    135 H62         8.6370   -3.1090   -1.5720 h1        1 MOL     -0.069071
    136 H63         8.8040   -5.3010   -1.3530 ho        1 MOL      0.400026
    137 H64         9.5070   -3.6530    1.2750 hc        1 MOL      0.096894
    138 H65        10.4650   -4.3540   -0.1680 hc        1 MOL      0.096894
    139 H66        10.3490   -2.6580    0.0190 hc        1 MOL      0.096894
    140 N12         7.1860   -0.6950   -1.0660 n         1 MOL     -0.106200
    141 C43         7.1400    0.7610   -1.3940 c3        1 MOL     -0.161580
    142 C44         6.2360    1.4750   -0.4180 c         1 MOL      0.425749
    143 O21         6.6560    2.5600    0.0260 o         1 MOL     -0.547900
    144 C45         6.6020    0.9430   -2.8790 c3        1 MOL      0.101165
    145 C46         6.4030    2.3960   -3.2940 c3        1 MOL     -0.039301
    146 C47         6.6560    2.6260   -4.8250 c3        1 MOL     -0.185760
    147 C48         6.0610    3.9410   -5.3540 c3        1 MOL      0.118605
    148 N13         6.3430    4.2130   -6.8200 n4        1 MOL     -0.342560
    149 H67         6.9580   -1.4180   -1.7410 hn        1 MOL      0.177573
    150 H68         8.0900    1.2980   -1.2870 h1        1 MOL      0.139785
    151 H69         5.7080    0.3410   -2.9850 hc        1 MOL     -0.016235
    152 H70         7.3500    0.5050   -3.5420 hc        1 MOL     -0.016235
    153 H71         7.1890    3.0120   -2.8760 hc        1 MOL      0.048577
    154 H72         5.4250    2.8110   -3.0300 hc        1 MOL      0.048577
    155 H73         6.3040    1.6990   -5.2790 hc        1 MOL      0.073986
    156 H74         7.7380    2.7270   -4.8930 hc        1 MOL      0.073986
    157 H75         6.3760    4.7500   -4.6940 hx        1 MOL      0.079305
    158 H76         4.9820    3.8650   -5.3060 hx        1 MOL      0.079305
    159 H77         7.3260    4.1290   -7.0480 hn        1 MOL      0.284897
    160 H78         5.8550    3.5550   -7.4100 hn        1 MOL      0.284897
    161 H79         6.1170    5.1650   -7.0760 hn        1 MOL      0.284897
    162 N14         5.0580    1.0190    0.0310 n         1 MOL      0.029672
    163 C49         4.2110    1.8220    0.9570 c3        1 MOL     -0.035210
    164 C50         4.6780    1.7180    2.4090 c         1 MOL      0.511132
    165 O22         4.6490    2.7250    3.0860 o         1 MOL     -0.570827
    166 C51         2.8060    1.2280    0.9110 c3        1 MOL      0.096485
    167 C52         2.0090    1.8800   -0.2650 c3        1 MOL      0.003258
    168 C53         0.6610    1.2030   -0.4940 c         1 MOL      0.706866
    169 O23         0.5600   -0.0700   -0.5270 o         1 MOL     -0.818986
    170 O24        -0.3550    1.8760   -0.6750 o         1 MOL     -0.818986
    171 H80         4.6810    0.1660   -0.3590 hn        1 MOL     -0.188990
    172 H81         4.2100    2.8560    0.6380 h1        1 MOL      0.044198
    173 H82         2.2740    1.4330    1.8480 hc        1 MOL      0.004772
    174 H83         2.8250    0.1510    0.7720 hc        1 MOL      0.004772
    175 H84         2.5700    1.7100   -1.1790 hc        1 MOL     -0.023843
    176 H85         1.9190    2.9600   -0.1560 hc        1 MOL     -0.023843
    177 N15         5.1510    0.5280    2.7750 n         1 MOL     -0.151410
    178 C54         5.9330    0.2790    3.9940 c3        1 MOL     -0.197640
    179 H86         6.9910    0.4360    3.7840 h1        1 MOL      0.085881
    180 H87         5.6130    0.9650    4.7780 h1        1 MOL      0.085881
    181 H88         5.7770   -0.7490    4.3230 h1        1 MOL      0.085881
    182 H89         5.0840   -0.2440    2.1140 hn        1 MOL      0.182155
    183 Ca1        -1.7560   -0.2490   -1.7730 Ca        1 MOL      1.735700
    184 O25         0.0650   -0.0690   -3.8880 oh        1 MOL     -0.754421
    185 H90         0.7730    0.5680   -3.7920 ho        1 MOL      0.381457
    186 H91        -0.0800   -0.1250   -4.8270 ho        1 MOL      0.381457
    187 O26        -1.3380   -2.5990   -2.9590 oh        1 MOL     -0.754421
    188 H92        -0.6480   -3.1080   -3.3900 ho        1 MOL      0.381457
    189 H93        -1.7770   -3.2210   -2.3790 ho        1 MOL      0.381457
@<TRIPOS>BOND
     1    1    2 1   
     2    1    4 1   
     3    1    5 1   
     4    1    6 1   
     5    2    3 2   
     6    2    7 1   
     7    7    8 1   
     8    7   15 1   
     9    8    9 1   
    10    8   11 1   
    11    8   16 1   
    12    9   10 2   
    13    9   19 1   
    14   11   12 1   
    15   11   17 1   
    16   11   18 1   
    17   12   13 1   
    18   12   14 1   
    19   19   20 1   
    20   19   28 1   
    21   20   21 1   
    22   20   23 1   
    23   20   29 1   
    24   21   22 2   
    25   21   41 1   
    26   23   24 1   
    27   23   30 1   
    28   23   31 1   
    29   24   25 1   
    30   24   32 1   
    31   24   33 1   
    32   25   26 1   
    33   25   34 1   
    34   25   35 1   
    35   26   27 1   
    36   26   36 1   
    37   26   37 1   
    38   27   38 1   
    39   27   39 1   
    40   27   40 1   
    41   41   42 1   
    42   41   49 1   
    43   42   43 1   
    44   42   45 1   
    45   42   50 1   
    46   43   44 2   
    47   43   53 1   
    48   45   46 1   
    49   45   51 1   
    50   45   52 1   
    51   46   47 1   
    52   46   48 1   
    53   53   54 1   
    54   53   57 1   
    55   54   55 1   
    56   54   58 1   
    57   54   59 1   
    58   55   56 2   
    59   55   60 1   
    60   60   61 1   
    61   60   68 1   
    62   61   62 1   
    63   61   64 1   
    64   61   69 1   
    65   62   63 2   
    66   62   72 1   
    67   64   65 1   
    68   64   70 1   
    69   64   71 1   
    70   65   66 1   
    71   65   67 1   
    72   72   73 1   
    73   72   76 1   
    74   73   74 1   
    75   73   77 1   
    76   73   78 1   
    77   74   75 2   
    78   74   79 1   
    79   79   80 1   
    80   79   86 1   
    81   80   81 1   
    82   80   83 1   
    83   80   87 1   
    84   81   82 2   
    85   81   93 1   
    86   83   84 1   
    87   83   85 1   
    88   83   88 1   
    89   84   90 1   
    90   84   91 1   
    91   84   92 1   
    92   85   89 1   
    93   93   94 1   
    94   93  101 1   
    95   94   95 1   
    96   94   97 1   
    97   94  102 1   
    98   95   96 2   
    99   95  112 1   
   100   97   98 1   
   101   97   99 1   
   102   97  103 1   
   103   98  100 1   
   104   98  104 1   
   105   98  105 1   
   106   99  106 1   
   107   99  107 1   
   108   99  108 1   
   109  100  109 1   
   110  100  110 1   
   111  100  111 1   
   112  112  113 1   
   113  112  119 1   
   114  113  114 1   
   115  113  116 1   
   116  113  120 1   
   117  114  115 2   
   118  114  126 1   
   119  116  117 1   
   120  116  118 1   
   121  116  121 1   
   122  117  123 1   
   123  117  124 1   
   124  117  125 1   
   125  118  122 1   
   126  126  127 1   
   127  126  133 1   
   128  127  128 1   
   129  127  130 1   
   130  127  134 1   
   131  128  129 2   
   132  128  140 1   
   133  130  131 1   
   134  130  132 1   
   135  130  135 1   
   136  131  137 1   
   137  131  138 1   
   138  131  139 1   
   139  132  136 1   
   140  140  141 1   
   141  140  149 1   
   142  141  142 1   
   143  141  144 1   
   144  141  150 1   
   145  142  143 2   
   146  142  162 1   
   147  144  145 1   
   148  144  151 1   
   149  144  152 1   
   150  145  146 1   
   151  145  153 1   
   152  145  154 1   
   153  146  147 1   
   154  146  155 1   
   155  146  156 1   
   156  147  148 1   
   157  147  157 1   
   158  147  158 1   
   159  148  159 1   
   160  148  160 1   
   161  148  161 1   
   162  162  163 1   
   163  162  171 1   
   164  163  164 1   
   165  163  166 1   
   166  163  172 1   
   167  164  165 2   
   168  164  177 1   
   169  166  167 1   
   170  166  173 1   
   171  166  174 1   
   172  167  168 1   
   173  167  175 1   
   174  167  176 1   
   175  168  169 1   
   176  168  170 1   
   177  177  178 1   
   178  177  182 1   
   179  178  179 1   
   180  178  180 1   
   181  178  181 1   
   182  184  185 1   
   183  184  186 1   
   184  187  188 1   
   185  187  189 1   
@<TRIPOS>SUBSTRUCTURE
     1 MOL         1 TEMP              0 ****  ****    0 ROOT
