@<TRIPOS>MOLECULE
MOL
  189   185     1     0     0
SMALL
resp


@<TRIPOS>ATOM
      1 C1         -0.2110    2.6010    5.9460 c3        1 MOL     -0.278392
      2 C2         -0.5340    2.2390    4.5370 c         1 MOL      0.743132
      3 O1          0.3440    2.4590    3.6040 o         1 MOL     -0.701147
      4 H1          0.6180    3.3080    5.9590 hc        1 MOL      0.073915
      5 H2         -1.0840    3.0560    6.4130 hc        1 MOL      0.073915
      6 H3          0.0700    1.7030    6.4970 hc        1 MOL      0.073915
      7 N1         -1.7090    1.6840    4.2280 n         1 MOL     -0.592918
      8 C3         -2.2320    1.4850    2.8330 c3        1 MOL      0.102282
      9 C4         -2.5660    2.9000    2.2930 c         1 MOL      0.513495
     10 O2         -3.4510    3.5980    2.7800 o         1 MOL     -0.550806
     11 C5         -3.3460    0.4160    2.8190 c3        1 MOL     -0.117591
     12 C6         -3.9380    0.1950    1.4320 c         1 MOL      0.679383
     13 O3         -3.3870    0.6960    0.4180 o         1 MOL     -0.665723
     14 O4         -4.9650   -0.4990    1.2920 o         1 MOL     -0.665723
     15 H4         -2.2240    1.3350    5.0220 hn        1 MOL      0.326238
     16 H5         -1.4630    1.1720    2.1260 h1        1 MOL     -0.017659
     17 H6         -4.1450    0.6890    3.5160 hc        1 MOL      0.046171
     18 H7         -2.9310   -0.5110    3.2290 hc        1 MOL      0.046171
     19 N2         -1.7740    3.3660    1.3220 n         1 MOL     -0.139137
     20 C7         -1.7840    4.7350    0.7960 c3        1 MOL     -0.418591
     21 C8         -2.9620    5.0440   -0.1350 c         1 MOL      0.646200
     22 O5         -3.5300    6.1170   -0.0450 o         1 MOL     -0.580108
     23 C9         -0.4230    5.0730    0.1980 c3        1 MOL     -0.055899
     24 C10        -0.2290    6.5770   -0.2020 c3        1 MOL      0.026712
     25 C11         1.0620    6.8620   -0.9120 c3        1 MOL     -0.081414
     26 C12         2.3170    6.6510   -0.0750 c3        1 MOL     -0.081806
     27 N3          2.2530    7.6490    1.0410 n4        1 MOL     -0.295653
     28 H8         -1.1630    2.7110    0.8450 hn        1 MOL      0.266038
     29 H9         -1.9220    5.3910    1.6490 h1        1 MOL      0.164682
     30 H10        -0.3200    4.4790   -0.7180 hc        1 MOL      0.101634
     31 H11         0.2640    4.7520    0.9710 hc        1 MOL      0.101634
     32 H12        -0.3910    7.1670    0.7000 hc        1 MOL      0.021017
     33 H13        -0.9670    6.9320   -0.9210 hc        1 MOL      0.021017
     34 H14         1.0130    7.9130   -1.2060 hc        1 MOL      0.058684
     35 H15         1.0710    6.1470   -1.7310 hc        1 MOL      0.058684
     36 H16         3.1610    6.8720   -0.7230 hx        1 MOL      0.109925
     37 H17         2.2390    5.6160    0.2580 hx        1 MOL      0.109925
     38 H18         3.1340    7.7460    1.5170 hn        1 MOL      0.314905
     39 H19         2.0180    8.5940    0.7650 hn        1 MOL      0.314905
     40 H20         1.7040    7.3220    1.8230 hn        1 MOL      0.314905
     41 N4         -3.4730    4.0760   -0.9140 n         1 MOL     -0.335076
     42 C13        -4.5870    4.1850   -1.8110 c3        1 MOL     -0.087524
     43 C14        -5.7850    3.3320   -1.3950 c         1 MOL      0.456120
     44 O6         -6.8630    3.3460   -2.0240 o         1 MOL     -0.517589
     45 C15        -4.0560    3.8150   -3.2330 c3        1 MOL     -0.163479
     46 C16        -3.3510    2.4740   -3.4150 c         1 MOL      0.689119
     47 O7         -2.7500    2.2000   -4.5050 o         1 MOL     -0.694313
     48 O8         -3.1970    1.6970   -2.4380 o         1 MOL     -0.694313
     49 H21        -2.9720    3.2120   -1.0400 hn        1 MOL      0.219691
     50 H22        -4.8920    5.2240   -1.9020 h1        1 MOL      0.126398
     51 H23        -3.4240    4.6110   -3.6270 hc        1 MOL      0.065542
     52 H24        -4.8300    3.9310   -3.9980 hc        1 MOL      0.065542
     53 N5         -5.6810    2.4990   -0.3040 n         1 MOL     -0.136320
     54 C17        -6.8220    1.8620    0.3030 c3        1 MOL     -0.370406
     55 C18        -7.4460    0.7890   -0.5140 c         1 MOL      0.659778
     56 O9         -8.6520    0.7300   -0.6560 o         1 MOL     -0.583531
     57 H25        -4.7450    2.3270    0.0180 hn        1 MOL      0.174761
     58 H26        -7.5930    2.6090    0.5140 h1        1 MOL      0.145982
     59 H27        -6.3470    1.4910    1.2140 h1        1 MOL      0.145982
     60 N6         -6.5920   -0.0760   -1.0580 n         1 MOL     -0.170529
     61 C19        -6.8730   -1.2290   -1.9230 c3        1 MOL     -0.081077
     62 C20        -6.9330   -2.5190   -1.0210 c         1 MOL      0.467056
     63 O10        -7.0070   -3.6110   -1.5140 o         1 MOL     -0.497850
     64 C21        -5.8750   -1.2910   -3.1170 c3        1 MOL     -0.075668
     65 C22        -4.3880   -1.6600   -2.6860 c         1 MOL      0.721176
     66 O11        -3.6280   -1.8020   -3.6270 o         1 MOL     -0.688700
     67 O12        -4.0650   -1.9300   -1.4960 o         1 MOL     -0.688700
     68 H28        -5.6550   -0.0880   -0.6840 hn        1 MOL      0.007719
     69 H29        -7.8190   -1.1940   -2.4510 h1        1 MOL      0.113623
     70 H30        -5.8200   -0.2860   -3.5130 hc        1 MOL      0.051705
     71 H31        -6.2100   -1.9440   -3.9160 hc        1 MOL      0.051705
     72 N7         -6.7960   -2.4390    0.2950 n         1 MOL     -0.418763
     73 C23        -6.8520   -3.5530    1.2250 c3        1 MOL      0.094458
     74 C24        -5.5390   -4.2350    1.3830 c         1 MOL      0.505003
     75 O13        -5.4850   -5.2710    2.0730 o         1 MOL     -0.596193
     76 H32        -6.5450   -1.5090    0.6210 hn        1 MOL      0.285613
     77 H33        -7.5790   -4.3540    1.0840 h1        1 MOL      0.056770
     78 H34        -7.1440   -3.2290    2.2220 h1        1 MOL      0.056770
     79 N8         -4.4170   -3.7080    0.8570 n         1 MOL     -0.384149
     80 C25        -3.1080   -4.2600    0.6530 c3        1 MOL      0.069481
     81 C26        -1.9430   -3.3090    0.8280 c         1 MOL      0.615262
     82 O14        -1.9590   -2.2190    0.3660 o         1 MOL     -0.558639
     83 C27        -2.9450   -5.0530   -0.6480 c3        1 MOL      0.494671
     84 C28        -3.3060   -6.5690   -0.4550 c3        1 MOL     -0.447292
     85 O15        -3.7300   -4.5060   -1.7000 oh        1 MOL     -0.650700
     86 H35        -4.6380   -2.8940    0.2960 hn        1 MOL      0.225282
     87 H36        -2.9750   -4.9890    1.4580 h1        1 MOL      0.035078
     88 H37        -1.8760   -4.9480   -0.8420 h1        1 MOL     -0.087661
     89 H38        -3.7030   -3.5450   -1.6120 ho        1 MOL      0.447230
     90 H39        -2.8910   -6.9610    0.4660 hc        1 MOL      0.110523
     91 H40        -4.3780   -6.6300   -0.2500 hc        1 MOL      0.110523
     92 H41        -3.0100   -7.1250   -1.3310 hc        1 MOL      0.110523
     93 N9         -0.8500   -3.8700    1.2750 n         1 MOL     -0.710531
     94 C29         0.3900   -3.1480    1.5240 c3        1 MOL      0.142023
     95 C30         1.5200   -3.5600    0.5890 c         1 MOL      0.726570
     96 O16         1.8460   -4.7070    0.6540 o         1 MOL     -0.604041
     97 C31         0.7690   -3.1300    3.0260 c3        1 MOL      0.130878
     98 C32        -0.1800   -2.1250    3.6660 c3        1 MOL      0.061144
     99 C33         2.2510   -2.8560    3.3070 c3        1 MOL     -0.345711
    100 C34        -0.0660   -1.9210    5.1620 c3        1 MOL     -0.292045
    101 H42        -0.8270   -4.8720    1.3650 hn        1 MOL      0.324562
    102 H43         0.2150   -2.1090    1.2440 h1        1 MOL     -0.006291
    103 H44         0.5840   -4.1380    3.3910 hc        1 MOL      0.018047
    104 H45        -1.2010   -2.3770    3.3560 hc        1 MOL      0.018859
    105 H46        -0.1010   -1.1290    3.2150 hc        1 MOL      0.018859
    106 H47         2.8480   -3.4620    2.6170 hc        1 MOL      0.058416
    107 H48         2.4800   -1.7980    3.1930 hc        1 MOL      0.058416
    108 H49         2.3930   -3.0590    4.3660 hc        1 MOL      0.058416
    109 H50         0.1920   -2.8250    5.7070 hc        1 MOL      0.072713
    110 H51         0.6780   -1.1150    5.2640 hc        1 MOL      0.072713
    111 H52        -0.9610   -1.4480    5.5540 hc        1 MOL      0.072713
    112 N10         2.1150   -2.6920   -0.2050 n         1 MOL     -0.201745
    113 C35         3.3810   -2.9150   -0.9980 c3        1 MOL     -0.376830
    114 C36         4.6950   -2.7720   -0.2180 c         1 MOL      0.603397
    115 O17         4.7870   -2.2520    0.8740 o         1 MOL     -0.399729
    116 C37         3.4170   -2.0150   -2.3100 c3        1 MOL      0.388705
    117 C38         2.2170   -2.3050   -3.2220 c3        1 MOL     -0.621577
    118 O18         3.2530   -0.7020   -1.9610 oh        1 MOL     -0.565619
    119 H53         1.7380   -1.7460   -0.2320 hn        1 MOL      0.140292
    120 H54         3.3560   -3.9100   -1.4350 h1        1 MOL      0.135590
    121 H55         4.3350   -2.0410   -2.9120 h1        1 MOL      0.018991
    122 H56         2.3310   -0.6960   -1.6920 ho        1 MOL      0.358437
    123 H57         2.3620   -1.6980   -4.1140 hc        1 MOL      0.175915
    124 H58         2.2500   -3.3630   -3.4960 hc        1 MOL      0.175915
    125 H59         1.3050   -1.9440   -2.7590 hc        1 MOL      0.175915
    126 N11         5.8720   -3.0630   -0.7890 n         1 MOL     -0.482052
    127 C39         7.2340   -2.7170   -0.2470 c3        1 MOL     -0.123820
    128 C40         7.4840   -1.3200    0.1850 c         1 MOL      0.314716
    129 O19         8.2220   -1.0940    1.1340 o         1 MOL     -0.501494
    130 C41         8.3510   -2.9470   -1.2420 c3        1 MOL      0.279392
    131 C42         8.6800   -4.4720   -1.5200 c3        1 MOL     -0.404621
    132 O20         8.0160   -2.3270   -2.4940 oh        1 MOL     -0.580262
    133 H60         5.9370   -3.3910   -1.7450 hn        1 MOL      0.307922
    134 H61         7.3330   -3.3620    0.6270 h1        1 MOL      0.167214
    135 H62         9.2420   -2.4330   -0.8690 h1        1 MOL      0.050601
    136 H63         8.8210   -1.8600   -2.7070 ho        1 MOL      0.323599
    137 H64         7.7070   -4.9700   -1.5920 hc        1 MOL      0.123447
    138 H65         9.1840   -4.6270   -2.4780 hc        1 MOL      0.123447
    139 H66         9.3420   -4.8610   -0.7490 hc        1 MOL      0.123447
    140 N12         6.8030   -0.2970   -0.3820 n         1 MOL     -0.035515
    141 C43         7.0200    1.1540    0.0420 c3        1 MOL     -0.094705
    142 C44         5.9970    1.5450    1.1010 c         1 MOL      0.459466
    143 O21         6.2810    2.2280    2.0180 o         1 MOL     -0.485294
    144 C45         6.9550    2.0140   -1.1810 c3        1 MOL      0.111001
    145 C46         8.0580    1.6680   -2.1670 c3        1 MOL     -0.259876
    146 C47         8.0350    2.5060   -3.4710 c3        1 MOL     -0.024506
    147 C48         9.3130    2.3530   -4.3690 c3        1 MOL     -0.020815
    148 N13         9.3480    1.0440   -4.9800 n4        1 MOL     -0.458913
    149 H67         6.1380   -0.4100   -1.1470 hn        1 MOL      0.176909
    150 H68         8.0140    1.2440    0.4830 h1        1 MOL      0.089904
    151 H69         6.9030    3.0600   -0.8990 hc        1 MOL      0.016366
    152 H70         5.9310    1.8970   -1.5400 hc        1 MOL      0.016366
    153 H71         8.1240    0.6070   -2.3910 hc        1 MOL      0.076315
    154 H72         8.9910    1.9740   -1.6900 hc        1 MOL      0.076315
    155 H73         7.9610    3.5620   -3.2580 hc        1 MOL      0.051127
    156 H74         7.1750    2.2050   -4.0680 hc        1 MOL      0.051127
    157 H75        10.2050    2.6970   -3.8350 hx        1 MOL      0.114875
    158 H76         9.2810    3.0680   -5.1890 hx        1 MOL      0.114875
    159 H77         8.4110    0.8080   -5.2530 hn        1 MOL      0.332863
    160 H78         9.9240    1.0080   -5.8090 hn        1 MOL      0.332863
    161 H79         9.7600    0.4240   -4.2970 hn        1 MOL      0.332863
    162 N14         4.6880    1.1730    0.9230 n         1 MOL     -0.327704
    163 C49         3.7370    1.2190    2.0580 c3        1 MOL     -0.246503
    164 C50         4.2620    0.5820    3.3790 c         1 MOL      0.517601
    165 O22         4.0090    1.1030    4.4610 o         1 MOL     -0.543862
    166 C51         2.4270    0.5610    1.6540 c3        1 MOL      0.169902
    167 C52         1.8350    1.2860    0.4030 c3        1 MOL      0.041987
    168 C53         0.5220    0.7170   -0.1030 c         1 MOL      0.716594
    169 O23         0.4720   -0.4240   -0.6000 o         1 MOL     -0.736036
    170 O24        -0.5260    1.3850   -0.1520 o         1 MOL     -0.736036
    171 H80         4.2890    0.8190    0.0700 hn        1 MOL      0.236159
    172 H81         3.5160    2.2610    2.2900 h1        1 MOL      0.128198
    173 H82         1.7120    0.6600    2.4680 hc        1 MOL      0.051292
    174 H83         2.5280   -0.4980    1.4070 hc        1 MOL      0.051292
    175 H84         2.5450    1.2990   -0.4230 hc        1 MOL     -0.076807
    176 H85         1.5210    2.3050    0.6600 hc        1 MOL     -0.076807
    177 N15         5.1070   -0.4590    3.2760 n         1 MOL     -0.064763
    178 C54         5.9140   -0.9810    4.4540 c3        1 MOL     -0.361633
    179 H86         6.7090   -0.2730    4.6910 h1        1 MOL      0.134925
    180 H87         5.2610   -1.0970    5.3190 h1        1 MOL      0.134925
    181 H88         6.3520   -1.9450    4.1960 h1        1 MOL      0.134925
    182 H89         5.0830   -0.8800    2.3590 hn        1 MOL      0.137296
    183 Ca1        -1.9910   -0.3070   -1.4690 Ca        1 MOL      1.790070
    184 O25        -1.4010   -2.7240   -2.7220 oh        1 MOL     -0.925052
    185 H90        -0.8530   -3.1700   -3.3610 ho        1 MOL      0.419762
    186 H91        -2.2620   -2.6950   -3.1340 ho        1 MOL      0.419762
    187 O26        -1.1030    0.0170   -4.0230 oh        1 MOL     -0.925052
    188 H92        -1.6290    0.7320   -4.3960 ho        1 MOL      0.419762
    189 H93        -0.8390   -0.5040   -4.7770 ho        1 MOL      0.419762
@<TRIPOS>BOND
     1    1    2 1   
     2    1    4 1   
     3    1    5 1   
     4    1    6 1   
     5    2    3 2   
     6    2    7 1   
     7    7    8 1   
     8    7   15 1   
     9    8    9 1   
    10    8   11 1   
    11    8   16 1   
    12    9   10 2   
    13    9   19 1   
    14   11   12 1   
    15   11   17 1   
    16   11   18 1   
    17   12   13 1   
    18   12   14 1   
    19   19   20 1   
    20   19   28 1   
    21   20   21 1   
    22   20   23 1   
    23   20   29 1   
    24   21   22 2   
    25   21   41 1   
    26   23   24 1   
    27   23   30 1   
    28   23   31 1   
    29   24   25 1   
    30   24   32 1   
    31   24   33 1   
    32   25   26 1   
    33   25   34 1   
    34   25   35 1   
    35   26   27 1   
    36   26   36 1   
    37   26   37 1   
    38   27   38 1   
    39   27   39 1   
    40   27   40 1   
    41   41   42 1   
    42   41   49 1   
    43   42   43 1   
    44   42   45 1   
    45   42   50 1   
    46   43   44 2   
    47   43   53 1   
    48   45   46 1   
    49   45   51 1   
    50   45   52 1   
    51   46   47 1   
    52   46   48 1   
    53   53   54 1   
    54   53   57 1   
    55   54   55 1   
    56   54   58 1   
    57   54   59 1   
    58   55   56 2   
    59   55   60 1   
    60   60   61 1   
    61   60   68 1   
    62   61   62 1   
    63   61   64 1   
    64   61   69 1   
    65   62   63 2   
    66   62   72 1   
    67   64   65 1   
    68   64   70 1   
    69   64   71 1   
    70   65   66 1   
    71   65   67 1   
    72   72   73 1   
    73   72   76 1   
    74   73   74 1   
    75   73   77 1   
    76   73   78 1   
    77   74   75 2   
    78   74   79 1   
    79   79   80 1   
    80   79   86 1   
    81   80   81 1   
    82   80   83 1   
    83   80   87 1   
    84   81   82 2   
    85   81   93 1   
    86   83   84 1   
    87   83   85 1   
    88   83   88 1   
    89   84   90 1   
    90   84   91 1   
    91   84   92 1   
    92   85   89 1   
    93   93   94 1   
    94   93  101 1   
    95   94   95 1   
    96   94   97 1   
    97   94  102 1   
    98   95   96 2   
    99   95  112 1   
   100   97   98 1   
   101   97   99 1   
   102   97  103 1   
   103   98  100 1   
   104   98  104 1   
   105   98  105 1   
   106   99  106 1   
   107   99  107 1   
   108   99  108 1   
   109  100  109 1   
   110  100  110 1   
   111  100  111 1   
   112  112  113 1   
   113  112  119 1   
   114  113  114 1   
   115  113  116 1   
   116  113  120 1   
   117  114  115 2   
   118  114  126 1   
   119  116  117 1   
   120  116  118 1   
   121  116  121 1   
   122  117  123 1   
   123  117  124 1   
   124  117  125 1   
   125  118  122 1   
   126  126  127 1   
   127  126  133 1   
   128  127  128 1   
   129  127  130 1   
   130  127  134 1   
   131  128  129 2   
   132  128  140 1   
   133  130  131 1   
   134  130  132 1   
   135  130  135 1   
   136  131  137 1   
   137  131  138 1   
   138  131  139 1   
   139  132  136 1   
   140  140  141 1   
   141  140  149 1   
   142  141  142 1   
   143  141  144 1   
   144  141  150 1   
   145  142  143 2   
   146  142  162 1   
   147  144  145 1   
   148  144  151 1   
   149  144  152 1   
   150  145  146 1   
   151  145  153 1   
   152  145  154 1   
   153  146  147 1   
   154  146  155 1   
   155  146  156 1   
   156  147  148 1   
   157  147  157 1   
   158  147  158 1   
   159  148  159 1   
   160  148  160 1   
   161  148  161 1   
   162  162  163 1   
   163  162  171 1   
   164  163  164 1   
   165  163  166 1   
   166  163  172 1   
   167  164  165 2   
   168  164  177 1   
   169  166  167 1   
   170  166  173 1   
   171  166  174 1   
   172  167  168 1   
   173  167  175 1   
   174  167  176 1   
   175  168  169 1   
   176  168  170 1   
   177  177  178 1   
   178  177  182 1   
   179  178  179 1   
   180  178  180 1   
   181  178  181 1   
   182  184  185 1   
   183  184  186 1   
   184  187  188 1   
   185  187  189 1   
@<TRIPOS>SUBSTRUCTURE
     1 MOL         1 TEMP              0 ****  ****    0 ROOT
