@<TRIPOS>MOLECULE
MOL
  189   185     1     0     0
SMALL
resp


@<TRIPOS>ATOM
      1 C1         -0.4680    0.7170    6.5070 c3        1 MOL     -0.358621
      2 C2         -0.6920    0.5690    5.0120 c         1 MOL      0.888827
      3 O1          0.3010    0.6960    4.2990 o         1 MOL     -0.686875
      4 H1         -0.7260   -0.2170    7.0060 hc        1 MOL      0.083946
      5 H2          0.5800    0.9520    6.6960 hc        1 MOL      0.083946
      6 H3         -1.0970    1.5190    6.8910 hc        1 MOL      0.083946
      7 N1         -1.8300    0.2030    4.5570 n         1 MOL     -0.700155
      8 C3         -2.1230    0.6300    3.1910 c3        1 MOL      0.048887
      9 C4         -2.2240    2.1440    2.9960 c         1 MOL      0.584056
     10 O2         -2.9090    2.7700    3.8060 o         1 MOL     -0.561070
     11 C5         -3.4010   -0.1120    2.7780 c3        1 MOL     -0.017927
     12 C6         -3.8590    0.2650    1.3640 c         1 MOL      0.656964
     13 O3         -5.1390    0.3030    1.1960 o         1 MOL     -0.676777
     14 O4         -3.0000    0.7200    0.5380 o         1 MOL     -0.676777
     15 H4         -2.6140   -0.0760    5.1230 hn        1 MOL      0.356626
     16 H5         -1.4070    0.1760    2.4980 h1        1 MOL     -0.021867
     17 H6         -4.1890    0.1440    3.4990 hc        1 MOL      0.019877
     18 H7         -3.3440   -1.2010    2.8370 hc        1 MOL      0.019877
     19 N2         -1.6070    2.7360    1.9540 n         1 MOL     -0.411930
     20 C7         -1.6890    4.1970    1.6460 c3        1 MOL      0.005742
     21 C8         -2.7800    4.6660    0.7290 c         1 MOL      0.320316
     22 O5         -3.1260    5.8880    0.6660 o         1 MOL     -0.548343
     23 C9         -0.3270    4.5750    1.1900 c3        1 MOL     -0.006028
     24 C10        -0.0490    6.0780    1.2740 c3        1 MOL      0.000566
     25 C11         1.3500    6.5160    0.6980 c3        1 MOL     -0.044653
     26 C12         1.4760    8.0390    0.9730 c3        1 MOL      0.138369
     27 N3          2.4590    8.7020    0.1550 n4        1 MOL     -0.321423
     28 H8         -1.1120    2.1520    1.2920 hn        1 MOL      0.281904
     29 H9         -1.8690    4.6300    2.6190 h1        1 MOL      0.087959
     30 H10        -0.1340    4.2660    0.1600 hc        1 MOL      0.051825
     31 H11         0.4100    4.1410    1.8650 hc        1 MOL      0.051825
     32 H12        -0.1660    6.4150    2.2940 hc        1 MOL      0.028232
     33 H13        -0.7810    6.6060    0.6690 hc        1 MOL      0.028232
     34 H14         1.4030    6.2190   -0.3500 hc        1 MOL      0.016449
     35 H15         2.2030    6.0590    1.1870 hc        1 MOL      0.016449
     36 H16         1.7230    8.1550    2.0330 hx        1 MOL      0.050511
     37 H17         0.4870    8.4820    0.8480 hx        1 MOL      0.050511
     38 H18         2.3160    8.4490   -0.8230 hn        1 MOL      0.307793
     39 H19         2.4010    9.7060    0.2190 hn        1 MOL      0.307793
     40 H20         3.4230    8.3990    0.2630 hn        1 MOL      0.307793
     41 N4         -3.2850    3.7350   -0.1110 n         1 MOL      0.113303
     42 C13        -4.2680    4.1450   -1.0740 c3        1 MOL     -0.262645
     43 C14        -5.7570    3.9290   -0.7440 c         1 MOL      0.469887
     44 O6         -6.6550    4.4780   -1.4240 o         1 MOL     -0.498802
     45 C15        -4.0040    3.4770   -2.3860 c3        1 MOL      0.091319
     46 C16        -2.4750    3.3820   -2.6500 c         1 MOL      0.632832
     47 O7         -1.8280    2.3540   -2.4430 o         1 MOL     -0.641453
     48 O8         -1.9350    4.4450   -3.1020 o         1 MOL     -0.641453
     49 H21        -3.0330    2.7660   -0.0330 hn        1 MOL      0.039522
     50 H22        -4.1430    5.2110   -1.2550 h1        1 MOL      0.131035
     51 H23        -4.4820    4.0900   -3.1460 hc        1 MOL      0.002770
     52 H24        -4.4810    2.5050   -2.5200 hc        1 MOL      0.002770
     53 N5         -6.1320    3.0460    0.2170 n         1 MOL     -0.358152
     54 C17        -7.4870    2.5110    0.2700 c3        1 MOL     -0.077350
     55 C18        -7.7410    1.3810   -0.7810 c         1 MOL      0.427515
     56 O9         -8.8020    1.3640   -1.3790 o         1 MOL     -0.541300
     57 H25        -5.4510    2.7260    0.8850 hn        1 MOL      0.285540
     58 H26        -8.2520    3.2700    0.1350 h1        1 MOL      0.082880
     59 H27        -7.6170    2.0070    1.2270 h1        1 MOL      0.082880
     60 N6         -6.7660    0.5440   -1.1990 n         1 MOL     -0.100206
     61 C19        -6.9990   -0.6390   -2.0150 c3        1 MOL      0.012142
     62 C20        -6.9620   -1.9990   -1.2380 c         1 MOL      0.435496
     63 O10        -7.4470   -3.0350   -1.7830 o         1 MOL     -0.550275
     64 C21        -6.0120   -0.6970   -3.1510 c3        1 MOL     -0.250409
     65 C22        -4.5200   -0.5000   -2.7890 c         1 MOL      0.804698
     66 O11        -4.0990   -1.1940   -1.8790 o         1 MOL     -0.775188
     67 O12        -3.8210    0.3510   -3.3940 o         1 MOL     -0.775188
     68 H28        -5.8280    0.6440   -0.8440 hn        1 MOL      0.167155
     69 H29        -8.0060   -0.6930   -2.4340 h1        1 MOL      0.093121
     70 H30        -6.2870    0.0820   -3.8620 hc        1 MOL      0.056298
     71 H31        -6.1030   -1.6890   -3.5890 hc        1 MOL      0.056298
     72 N7         -6.5690   -2.0060    0.0210 n         1 MOL     -0.346506
     73 C23        -6.8190   -3.1890    0.8710 c3        1 MOL     -0.066340
     74 C24        -5.5560   -4.0070    0.8960 c         1 MOL      0.561215
     75 O13        -5.6180   -5.0790    1.4760 o         1 MOL     -0.585559
     76 H32        -6.0420   -1.2410    0.4150 hn        1 MOL      0.236874
     77 H33        -7.6330   -3.7920    0.4630 h1        1 MOL      0.097258
     78 H34        -7.1180   -2.9160    1.8840 h1        1 MOL      0.097258
     79 N8         -4.4570   -3.5840    0.2820 n         1 MOL     -0.531101
     80 C25        -3.3150   -4.4710    0.0440 c3        1 MOL      0.286448
     81 C26        -2.0050   -3.6340    0.0540 c         1 MOL      0.433015
     82 O14        -2.0020   -2.4530   -0.2680 o         1 MOL     -0.531368
     83 C27        -3.4010   -5.1730   -1.2760 c3        1 MOL      0.501057
     84 C28        -2.4700   -6.3210   -1.3510 c3        1 MOL     -0.358809
     85 O15        -4.6990   -5.6610   -1.4910 oh        1 MOL     -0.565334
     86 H35        -4.4620   -2.7060   -0.2060 hn        1 MOL      0.291317
     87 H36        -3.1740   -5.2400    0.8150 h1        1 MOL     -0.000072
     88 H37        -3.1000   -4.4100   -1.9950 h1        1 MOL     -0.053110
     89 H38        -4.9350   -5.2480   -2.3280 ho        1 MOL      0.348329
     90 H39        -2.5240   -6.9520   -0.4640 hc        1 MOL      0.071050
     91 H40        -2.5970   -6.8650   -2.2920 hc        1 MOL      0.071050
     92 H41        -1.4890   -5.8740   -1.5260 hc        1 MOL      0.071050
     93 N9         -0.8420   -4.2550    0.4370 n         1 MOL     -0.517046
     94 C29         0.3750   -3.5550    0.8290 c3        1 MOL      0.156537
     95 C30         1.4780   -3.9990   -0.2310 c         1 MOL      0.447886
     96 O16         1.6200   -5.1820   -0.5110 o         1 MOL     -0.565771
     97 C31         0.7740   -3.9290    2.2450 c3        1 MOL     -0.101036
     98 C32         0.0060   -3.0300    3.2470 c3        1 MOL      0.226957
     99 C33         2.3000   -3.6640    2.4920 c3        1 MOL      0.029488
    100 C34         0.3080   -3.3440    4.7400 c3        1 MOL     -0.298295
    101 H42        -0.8650   -5.2350    0.6930 hn        1 MOL      0.261961
    102 H43         0.1960   -2.4900    0.7430 h1        1 MOL      0.002927
    103 H44         0.5010   -4.9370    2.5660 hc        1 MOL      0.064533
    104 H45        -1.0560   -3.1140    3.0420 hc        1 MOL     -0.009192
    105 H46         0.3420   -2.0070    3.0510 hc        1 MOL     -0.009192
    106 H47         2.6780   -2.6470    2.3800 hc        1 MOL     -0.031413
    107 H48         2.5320   -4.0240    3.4970 hc        1 MOL     -0.031413
    108 H49         2.9050   -4.3240    1.8620 hc        1 MOL     -0.031413
    109 H50         0.1800   -4.4020    4.9250 hc        1 MOL      0.065963
    110 H51         1.2490   -2.8610    5.0010 hc        1 MOL      0.065963
    111 H52        -0.4400   -2.8000    5.3280 hc        1 MOL      0.065963
    112 N10         2.2800   -3.0420   -0.6340 n         1 MOL      0.083135
    113 C35         3.4510   -3.0310   -1.6100 c3        1 MOL     -0.364417
    114 C36         4.7720   -2.6870   -0.9290 c         1 MOL      0.479064
    115 O17         4.7940   -2.5680    0.2900 o         1 MOL     -0.377294
    116 C37         3.0020   -2.2170   -2.8470 c3        1 MOL      0.275851
    117 C38         1.8200   -2.7410   -3.7120 c3        1 MOL     -0.251497
    118 O18         2.6520   -0.9500   -2.3510 oh        1 MOL     -0.624796
    119 H53         2.0050   -2.1180   -0.3080 hn        1 MOL     -0.039828
    120 H54         3.5880   -4.0920   -1.7900 h1        1 MOL      0.137606
    121 H55         3.8270   -2.0670   -3.5480 h1        1 MOL      0.043576
    122 H56         1.8710   -1.1070   -1.8190 ho        1 MOL      0.475151
    123 H57         1.8190   -3.8310   -3.7800 hc        1 MOL      0.062032
    124 H58         0.8360   -2.5180   -3.2990 hc        1 MOL      0.062032
    125 H59         1.7780   -2.3430   -4.7230 hc        1 MOL      0.062032
    126 N11         5.8840   -2.5430   -1.6260 n         1 MOL     -0.289311
    127 C39         7.2320   -2.4520   -0.9530 c3        1 MOL     -0.089969
    128 C40         7.3720   -1.1970   -0.0610 c         1 MOL      0.249563
    129 O19         7.9420   -1.2740    1.0280 o         1 MOL     -0.474570
    130 C41         8.4060   -2.3190   -1.9640 c3        1 MOL      0.341316
    131 C42         8.4950   -3.4860   -2.9860 c3        1 MOL     -0.508587
    132 O20         8.4060   -1.1710   -2.7350 oh        1 MOL     -0.619688
    133 H60         5.8160   -2.7020   -2.6290 hn        1 MOL      0.266754
    134 H61         7.3810   -3.2750   -0.2560 h1        1 MOL      0.132163
    135 H62         9.3670   -2.3610   -1.4500 h1        1 MOL      0.050200
    136 H63         9.3400   -1.0130   -2.8960 ho        1 MOL      0.409841
    137 H64         9.5100   -3.4030   -3.3650 hc        1 MOL      0.137561
    138 H65         8.5240   -4.4330   -2.4380 hc        1 MOL      0.137561
    139 H66         7.6640   -3.5170   -3.6930 hc        1 MOL      0.137561
    140 N12         6.8340   -0.0350   -0.4700 n         1 MOL     -0.064146
    141 C43         6.9900    1.1870    0.3580 c3        1 MOL     -0.074969
    142 C44         5.8650    1.3990    1.4060 c         1 MOL      0.318191
    143 O21         5.8670    2.2660    2.2940 o         1 MOL     -0.495867
    144 C45         6.8420    2.3200   -0.6820 c3        1 MOL      0.004382
    145 C46         8.1530    2.5380   -1.3580 c3        1 MOL     -0.065451
    146 C47         8.1630    3.7180   -2.3980 c3        1 MOL     -0.014813
    147 C48         7.3210    3.3320   -3.6300 c3        1 MOL      0.021518
    148 N13         7.2670    4.3940   -4.6340 n4        1 MOL     -0.178848
    149 H67         6.5090    0.0520   -1.4280 hn        1 MOL      0.170158
    150 H68         7.9470    1.3160    0.8540 h1        1 MOL      0.150984
    151 H69         6.5330    3.2590   -0.2220 hc        1 MOL      0.028046
    152 H70         6.0030    2.1540   -1.3540 hc        1 MOL      0.028046
    153 H71         8.5550    1.6180   -1.7770 hc        1 MOL      0.031997
    154 H72         8.8370    2.8230   -0.5550 hc        1 MOL      0.031997
    155 H73         9.1460    3.9830   -2.7660 hc        1 MOL      0.022023
    156 H74         7.7200    4.6270   -1.9850 hc        1 MOL      0.022023
    157 H75         6.3050    3.0440   -3.3760 hx        1 MOL      0.075906
    158 H76         7.9170    2.5100   -4.0320 hx        1 MOL      0.075906
    159 H77         6.8180    5.2340   -4.2710 hn        1 MOL      0.223063
    160 H78         8.2050    4.6750   -4.9000 hn        1 MOL      0.223063
    161 H79         6.7810    4.0610   -5.4540 hn        1 MOL      0.223063
    162 N14         4.8870    0.4670    1.3950 n         1 MOL     -0.092151
    163 C49         3.9020    0.2990    2.4280 c3        1 MOL     -0.099305
    164 C50         4.4740   -0.6880    3.4830 c         1 MOL      0.462337
    165 O22         4.4020   -0.3500    4.6700 o         1 MOL     -0.545884
    166 C51         2.5980   -0.0690    1.7110 c3        1 MOL      0.228553
    167 C52         2.1930    0.8980    0.5900 c3        1 MOL     -0.018636
    168 C53         0.8860    0.4540   -0.0700 c         1 MOL      0.790385
    169 O23         0.7860   -0.6980   -0.5870 o         1 MOL     -0.755573
    170 O24        -0.1220    1.2050   -0.0580 o         1 MOL     -0.755573
    171 H80         4.8630   -0.1960    0.6400 hn        1 MOL      0.049715
    172 H81         3.7590    1.2640    2.9150 h1        1 MOL      0.099944
    173 H82         1.7640   -0.2030    2.3970 hc        1 MOL      0.046978
    174 H83         2.7520   -0.9900    1.1660 hc        1 MOL      0.046978
    175 H84         2.9530    0.9640   -0.1930 hc        1 MOL     -0.064009
    176 H85         2.0370    1.8780    1.0370 hc        1 MOL     -0.064009
    177 N15         5.1230   -1.7850    3.0870 n         1 MOL     -0.059275
    178 C54         5.9690   -2.6070    3.9560 c3        1 MOL     -0.286924
    179 H86         5.5510   -3.6110    4.0250 h1        1 MOL      0.108655
    180 H87         6.9750   -2.6610    3.5380 h1        1 MOL      0.108655
    181 H88         6.0100   -2.1610    4.9490 h1        1 MOL      0.108655
    182 H89         5.0490   -1.9860    2.0950 hn        1 MOL      0.141872
    183 Ca1        -1.6970   -0.1410   -1.5150 Ca        1 MOL      1.747160
    184 O25        -1.6770   -2.1360   -3.3120 oh        1 MOL     -0.825592
    185 H90        -1.2120   -2.8790   -3.6980 ho        1 MOL      0.402595
    186 H91        -2.4360   -1.9980   -3.8730 ho        1 MOL      0.402595
    187 O26         0.0520    0.0660   -3.8560 oh        1 MOL     -0.825592
    188 H92         0.6890    0.6680   -4.2300 ho        1 MOL      0.402595
    189 H93        -0.1100   -0.5780   -4.5470 ho        1 MOL      0.402595
@<TRIPOS>BOND
     1    1    2 1   
     2    1    4 1   
     3    1    5 1   
     4    1    6 1   
     5    2    3 2   
     6    2    7 1   
     7    7    8 1   
     8    7   15 1   
     9    8    9 1   
    10    8   11 1   
    11    8   16 1   
    12    9   10 2   
    13    9   19 1   
    14   11   12 1   
    15   11   17 1   
    16   11   18 1   
    17   12   13 1   
    18   12   14 1   
    19   19   20 1   
    20   19   28 1   
    21   20   21 1   
    22   20   23 1   
    23   20   29 1   
    24   21   22 2   
    25   21   41 1   
    26   23   24 1   
    27   23   30 1   
    28   23   31 1   
    29   24   25 1   
    30   24   32 1   
    31   24   33 1   
    32   25   26 1   
    33   25   34 1   
    34   25   35 1   
    35   26   27 1   
    36   26   36 1   
    37   26   37 1   
    38   27   38 1   
    39   27   39 1   
    40   27   40 1   
    41   41   42 1   
    42   41   49 1   
    43   42   43 1   
    44   42   45 1   
    45   42   50 1   
    46   43   44 2   
    47   43   53 1   
    48   45   46 1   
    49   45   51 1   
    50   45   52 1   
    51   46   47 1   
    52   46   48 1   
    53   53   54 1   
    54   53   57 1   
    55   54   55 1   
    56   54   58 1   
    57   54   59 1   
    58   55   56 2   
    59   55   60 1   
    60   60   61 1   
    61   60   68 1   
    62   61   62 1   
    63   61   64 1   
    64   61   69 1   
    65   62   63 2   
    66   62   72 1   
    67   64   65 1   
    68   64   70 1   
    69   64   71 1   
    70   65   66 1   
    71   65   67 1   
    72   72   73 1   
    73   72   76 1   
    74   73   74 1   
    75   73   77 1   
    76   73   78 1   
    77   74   75 2   
    78   74   79 1   
    79   79   80 1   
    80   79   86 1   
    81   80   81 1   
    82   80   83 1   
    83   80   87 1   
    84   81   82 2   
    85   81   93 1   
    86   83   84 1   
    87   83   85 1   
    88   83   88 1   
    89   84   90 1   
    90   84   91 1   
    91   84   92 1   
    92   85   89 1   
    93   93   94 1   
    94   93  101 1   
    95   94   95 1   
    96   94   97 1   
    97   94  102 1   
    98   95   96 2   
    99   95  112 1   
   100   97   98 1   
   101   97   99 1   
   102   97  103 1   
   103   98  100 1   
   104   98  104 1   
   105   98  105 1   
   106   99  106 1   
   107   99  107 1   
   108   99  108 1   
   109  100  109 1   
   110  100  110 1   
   111  100  111 1   
   112  112  113 1   
   113  112  119 1   
   114  113  114 1   
   115  113  116 1   
   116  113  120 1   
   117  114  115 2   
   118  114  126 1   
   119  116  117 1   
   120  116  118 1   
   121  116  121 1   
   122  117  123 1   
   123  117  124 1   
   124  117  125 1   
   125  118  122 1   
   126  126  127 1   
   127  126  133 1   
   128  127  128 1   
   129  127  130 1   
   130  127  134 1   
   131  128  129 2   
   132  128  140 1   
   133  130  131 1   
   134  130  132 1   
   135  130  135 1   
   136  131  137 1   
   137  131  138 1   
   138  131  139 1   
   139  132  136 1   
   140  140  141 1   
   141  140  149 1   
   142  141  142 1   
   143  141  144 1   
   144  141  150 1   
   145  142  143 2   
   146  142  162 1   
   147  144  145 1   
   148  144  151 1   
   149  144  152 1   
   150  145  146 1   
   151  145  153 1   
   152  145  154 1   
   153  146  147 1   
   154  146  155 1   
   155  146  156 1   
   156  147  148 1   
   157  147  157 1   
   158  147  158 1   
   159  148  159 1   
   160  148  160 1   
   161  148  161 1   
   162  162  163 1   
   163  162  171 1   
   164  163  164 1   
   165  163  166 1   
   166  163  172 1   
   167  164  165 2   
   168  164  177 1   
   169  166  167 1   
   170  166  173 1   
   171  166  174 1   
   172  167  168 1   
   173  167  175 1   
   174  167  176 1   
   175  168  169 1   
   176  168  170 1   
   177  177  178 1   
   178  177  182 1   
   179  178  179 1   
   180  178  180 1   
   181  178  181 1   
   182  184  185 1   
   183  184  186 1   
   184  187  188 1   
   185  187  189 1   
@<TRIPOS>SUBSTRUCTURE
     1 MOL         1 TEMP              0 ****  ****    0 ROOT
