@<TRIPOS>MOLECULE
MOL
  179   176     1     0     0
SMALL
resp


@<TRIPOS>ATOM
      1 C1          2.2590    1.5840    6.2020 c3        1 MOL     -0.370653
      2 C2          1.7710    1.4050    4.7700 c         1 MOL      0.811493
      3 O1          2.5020    0.9390    3.8670 o         1 MOL     -0.608399
      4 H1          1.4650    2.0270    6.8030 hc        1 MOL      0.097772
      5 H2          2.5290    0.6140    6.6170 hc        1 MOL      0.097772
      6 H3          3.1300    2.2400    6.2110 hc        1 MOL      0.097772
      7 N1          0.4580    1.7750    4.5470 n         1 MOL     -0.655482
      8 C3         -0.0000    2.0160    3.1860 c3        1 MOL     -0.091689
      9 C4          0.1620    3.4480    2.6790 c         1 MOL      0.679531
     10 O2         -0.0790    4.3920    3.4670 o         1 MOL     -0.582784
     11 C5         -1.5190    1.6420    3.1840 c3        1 MOL     -0.105452
     12 C6         -2.1660    1.6570    1.8670 c         1 MOL      0.938905
     13 O3         -1.5510    2.0260    0.8160 o         1 MOL     -0.855260
     14 O4         -3.2880    1.1450    1.6940 o         1 MOL     -0.855260
     15 H4         -0.2350    2.0010    5.2370 hn        1 MOL      0.367024
     16 H5          0.5020    1.4120    2.4350 h1        1 MOL      0.083956
     17 H6         -2.0560    2.2810    3.8880 hc        1 MOL      0.044057
     18 H7         -1.6980    0.6750    3.6450 hc        1 MOL      0.044057
     19 N2          0.6420    3.6500    1.4580 n         1 MOL     -0.459226
     20 C7          0.9780    4.9400    0.8310 c3        1 MOL     -0.144398
     21 C8         -0.0170    5.5870   -0.0920 c         1 MOL      0.465568
     22 O5          0.1940    6.7930   -0.4390 o         1 MOL     -0.583582
     23 C9          2.2600    4.7920    0.0870 c3        1 MOL      0.217713
     24 C10         3.1600    6.0480   -0.0210 c3        1 MOL     -0.175172
     25 C11         4.6200    5.6320   -0.1850 c3        1 MOL      0.047737
     26 C12         5.5310    6.8310    0.1590 c3        1 MOL      0.007752
     27 N3          5.9110    7.6490   -1.0030 n4        1 MOL     -0.440831
     28 H8          0.7430    2.7960    0.9340 hn        1 MOL      0.233337
     29 H9          1.1130    5.6070    1.6870 h1        1 MOL      0.134478
     30 H10         2.1580    4.3990   -0.9290 hc        1 MOL      0.025354
     31 H11         2.8910    4.0840    0.6370 hc        1 MOL      0.025354
     32 H12         3.0780    6.5450    0.9560 hc        1 MOL      0.050221
     33 H13         2.7970    6.6760   -0.8320 hc        1 MOL      0.050221
     34 H14         4.7810    5.2880   -1.2120 hc        1 MOL      0.026070
     35 H15         4.9490    4.7940    0.4200 hc        1 MOL      0.026070
     36 H16         6.4340    6.4870    0.6550 hx        1 MOL      0.095889
     37 H17         5.0130    7.4170    0.9100 hx        1 MOL      0.095889
     38 H18         6.7000    7.2110   -1.4670 hn        1 MOL      0.351566
     39 H19         5.2070    7.6760   -1.7260 hn        1 MOL      0.351566
     40 H20         6.2140    8.5630   -0.7140 hn        1 MOL      0.351566
     41 N4         -1.0420    4.8920   -0.5910 n         1 MOL     -0.219140
     42 C13        -2.1030    5.3690   -1.4340 c3        1 MOL     -0.006736
     43 C14        -3.5240    5.0950   -0.7680 c         1 MOL      0.462001
     44 O6         -4.5600    5.4720   -1.3530 o         1 MOL     -0.528150
     45 C15        -1.9510    4.8390   -2.9060 c3        1 MOL     -0.201679
     46 C16        -1.8260    3.3710   -3.0880 c         1 MOL      0.775571
     47 O7         -2.1010    2.6000   -2.1630 o         1 MOL     -0.726794
     48 O8         -1.2240    2.9470   -4.1410 o         1 MOL     -0.726794
     49 H21        -0.9650    3.8830   -0.5880 hn        1 MOL      0.255140
     50 H22        -2.0270    6.4580   -1.4600 h1        1 MOL      0.102914
     51 H23        -1.0900    5.2880   -3.3990 hc        1 MOL      0.066576
     52 H24        -2.8310    5.1750   -3.4450 hc        1 MOL      0.066576
     53 N5         -3.5960    4.3740    0.3650 n         1 MOL     -0.322504
     54 C17        -4.9510    4.1130    0.9710 c3        1 MOL     -0.215591
     55 C18        -5.7980    3.1520    0.1440 c         1 MOL      0.527988
     56 O9         -6.9530    3.0070    0.4670 o         1 MOL     -0.573937
     57 H25        -2.8190    3.8850    0.7900 hn        1 MOL      0.201831
     58 H26        -5.4090    5.0940    0.9280 h1        1 MOL      0.137205
     59 H27        -4.8620    3.8470    2.0200 h1        1 MOL      0.137205
     60 N6         -5.2160    2.4600   -0.8090 n         1 MOL     -0.117545
     61 C19        -5.9140    1.4790   -1.6670 c3        1 MOL     -0.102050
     62 C20        -6.5000    0.3090   -0.8670 c         1 MOL      0.344913
     63 O10        -7.3580   -0.4040   -1.3320 o         1 MOL     -0.490338
     64 C21        -5.1650    1.1730   -2.9180 c3        1 MOL     -0.116276
     65 C22        -4.1220    0.0630   -2.7030 c         1 MOL      0.740455
     66 N7         -3.5800   -0.4870   -3.7990 n         1 MOL     -0.875524
     67 O11        -3.7190   -0.3220   -1.5900 o         1 MOL     -0.546748
     68 H28        -4.2020    2.3680   -0.8090 hn        1 MOL      0.065667
     69 H29        -6.8170    1.9520   -2.0570 h1        1 MOL      0.130866
     70 H30        -4.7020    2.0170   -3.4320 hc        1 MOL      0.065293
     71 H31        -5.9160    0.7670   -3.5910 hc        1 MOL      0.065293
     72 H32        -4.0070   -0.4700   -4.7080 hn        1 MOL      0.381096
     73 H33        -2.7980   -1.1170   -3.6760 hn        1 MOL      0.381096
     74 N8         -6.1190    0.1890    0.3890 n         1 MOL     -0.137381
     75 C23        -6.4880   -0.8450    1.3420 c3        1 MOL     -0.289889
     76 C24        -5.4720   -1.9020    1.6790 c         1 MOL      0.646319
     77 O12        -5.9290   -2.7950    2.3960 o         1 MOL     -0.566120
     78 H34        -5.5590    0.9320    0.7860 hn        1 MOL      0.304458
     79 H35        -7.3460   -1.3550    0.9120 h1        1 MOL      0.133670
     80 H36        -6.8230   -0.4010    2.2860 h1        1 MOL      0.133670
     81 N9         -4.2540   -1.8680    1.0670 n         1 MOL     -0.566504
     82 C25        -3.3050   -2.9780    1.2140 c3        1 MOL      0.355424
     83 C26        -1.8610   -2.4330    1.2540 c         1 MOL      0.473252
     84 O13        -1.6030   -1.3130    0.7420 o         1 MOL     -0.660654
     85 C27        -3.4100   -4.0490    0.1270 c3        1 MOL     -0.015720
     86 C28        -4.7530   -4.6140   -0.0830 ca        1 MOL     -0.070031
     87 C29        -5.6890   -3.9010   -0.9110 ca        1 MOL     -0.065640
     88 C30        -5.0710   -5.8760    0.4040 ca        1 MOL     -0.065640
     89 C31        -6.9950   -4.4910   -1.1360 ca        1 MOL     -0.301566
     90 C32        -6.2540   -6.5220    0.0920 ca        1 MOL     -0.301566
     91 C33        -7.2360   -5.7980   -0.6130 ca        1 MOL      0.380412
     92 O14        -8.4100   -6.4400   -1.0070 oh        1 MOL     -0.498987
     93 H37        -4.0570   -1.0860    0.4590 hn        1 MOL      0.377076
     94 H38        -3.4770   -3.4510    2.1830 h1        1 MOL     -0.017030
     95 H39        -2.6960   -4.8110    0.4460 hc        1 MOL     -0.002195
     96 H40        -3.0580   -3.6390   -0.8110 hc        1 MOL     -0.002195
     97 H41        -5.4360   -3.0170   -1.4750 ha        1 MOL      0.098816
     98 H42        -4.3030   -6.4160    0.9340 ha        1 MOL      0.098816
     99 H43        -7.7800   -3.9730   -1.6740 ha        1 MOL      0.160102
    100 H44        -6.3890   -7.5260    0.4760 ha        1 MOL      0.160102
    101 H45        -8.5940   -7.2050   -0.4540 ho        1 MOL      0.349938
    102 N10        -0.8740   -3.1770    1.8000 n         1 MOL     -0.509792
    103 C34         0.5400   -2.8380    1.9330 c3        1 MOL      0.006184
    104 C35         1.1930   -3.7470    0.9540 c         1 MOL      0.442384
    105 O15         1.4100   -4.9470    1.1330 o         1 MOL     -0.525784
    106 C36         0.9350   -2.9510    3.4070 c3        1 MOL      0.065436
    107 C37         0.2400   -1.9310    4.2800 c3        1 MOL     -0.012981
    108 C38         2.4710   -2.8760    3.4070 c3        1 MOL     -0.115241
    109 C39         0.1010   -2.4740    5.7270 c3        1 MOL     -0.253633
    110 H46        -1.2610   -3.9520    2.3150 hn        1 MOL      0.326353
    111 H47         0.7130   -1.7930    1.6580 h1        1 MOL      0.106570
    112 H48         0.6880   -3.9610    3.7290 hc        1 MOL      0.021107
    113 H49        -0.7130   -1.6740    3.8220 hc        1 MOL      0.054268
    114 H50         0.8860   -1.0650    4.1480 hc        1 MOL      0.054268
    115 H51         2.8410   -3.8490    3.0990 hc        1 MOL      0.031680
    116 H52         2.8720   -2.1190    2.7300 hc        1 MOL      0.031680
    117 H53         2.9210   -2.6350    4.3760 hc        1 MOL      0.031680
    118 H54        -0.7180   -3.1860    5.6820 hc        1 MOL      0.064572
    119 H55         1.0420   -2.8390    6.1380 hc        1 MOL      0.064572
    120 H56        -0.1300   -1.6280    6.3600 hc        1 MOL      0.064572
    121 N11         1.5620   -3.1780   -0.1760 n         1 MOL     -0.199763
    122 C40         2.3630   -3.9330   -1.1920 c3        1 MOL     -0.093711
    123 C41         3.9130   -3.9090   -0.9210 c         1 MOL      0.442131
    124 O16         4.3520   -3.2990    0.0710 o         1 MOL     -0.369429
    125 C42         1.9760   -3.3980   -2.5930 c3        1 MOL      0.088720
    126 O17         2.5110   -2.1050   -2.6860 oh        1 MOL     -0.596571
    127 H57         1.4800   -2.1990   -0.4320 hn        1 MOL      0.192229
    128 H58         2.0240   -4.9680   -1.1590 h1        1 MOL      0.073837
    129 H59         0.8930   -3.3650   -2.7130 h1        1 MOL      0.053278
    130 H60         2.3190   -4.1290   -3.3180 h1        1 MOL      0.053278
    131 H61         2.0150   -1.4980   -2.1490 ho        1 MOL      0.365864
    132 N12         4.7570   -4.7090   -1.5960 n         1 MOL     -0.423990
    133 C43         6.0900   -4.9050   -1.0240 c3        1 MOL      0.216901
    134 C44         6.9980   -3.6380   -1.3280 c         1 MOL      0.355452
    135 O18         7.8850   -3.3060   -0.5570 o         1 MOL     -0.537538
    136 C45         6.7330   -6.1350   -1.6540 c3        1 MOL     -0.429253
    137 H62         4.3720   -5.3730   -2.2540 hn        1 MOL      0.285334
    138 H63         6.0000   -5.0250    0.0540 h1        1 MOL      0.086227
    139 H64         6.6400   -6.1700   -2.7450 hc        1 MOL      0.126161
    140 H65         7.7760   -6.2160   -1.3380 hc        1 MOL      0.126161
    141 H66         6.3050   -7.0090   -1.1640 hc        1 MOL      0.126161
    142 N13         6.9200   -2.9460   -2.4070 n         1 MOL     -0.269598
    143 C46         7.5250   -1.6470   -2.6340 c3        1 MOL      0.099933
    144 C47         7.0600   -0.4960   -1.7970 c         1 MOL      0.399401
    145 O19         7.7520    0.4690   -1.6920 o         1 MOL     -0.510723
    146 C48         7.3100   -1.3290   -4.0850 c3        1 MOL     -0.222634
    147 H67         6.2750   -3.3250   -3.0950 hn        1 MOL      0.205948
    148 H68         8.6160   -1.6660   -2.5450 h1        1 MOL      0.094843
    149 H69         6.2320   -1.1810   -4.2160 hc        1 MOL      0.063425
    150 H70         7.8660   -0.4430   -4.4060 hc        1 MOL      0.063425
    151 H71         7.7320   -2.0800   -4.7430 hc        1 MOL      0.063425
    152 N14         5.8620   -0.6860   -1.2110 n         1 MOL     -0.108860
    153 C49         5.4430    0.2360   -0.1100 c3        1 MOL     -0.164471
    154 C50         6.0890   -0.1270    1.2430 c         1 MOL      0.559755
    155 O20         6.4800    0.7780    1.9620 o         1 MOL     -0.554553
    156 C51         3.8620    0.1710    0.0130 c3        1 MOL      0.108924
    157 C52         3.2180    0.9440   -1.1830 c3        1 MOL      0.044942
    158 C53         1.7030    0.7190   -1.3590 c         1 MOL      0.571421
    159 O21         1.2150   -0.3910   -1.0820 o         1 MOL     -0.669929
    160 O22         0.9240    1.6690   -1.5830 o         1 MOL     -0.669929
    161 H72         5.1890   -1.3930   -1.4670 hn        1 MOL      0.146849
    162 H73         5.5990    1.2800   -0.3710 h1        1 MOL      0.066957
    163 H74         3.4640    0.5890    0.9320 hc        1 MOL     -0.007318
    164 H75         3.5640   -0.8660   -0.1610 hc        1 MOL     -0.007318
    165 H76         3.7300    0.7630   -2.1300 hc        1 MOL     -0.033340
    166 H77         3.3930    2.0010   -1.0040 hc        1 MOL     -0.033340
    167 N15         6.1560   -1.4320    1.5480 n         1 MOL     -0.166156
    168 C54         6.7700   -1.8530    2.7980 c3        1 MOL     -0.301598
    169 H78         6.1930   -1.4600    3.6360 h1        1 MOL      0.115467
    170 H79         6.7860   -2.9420    2.8470 h1        1 MOL      0.115467
    171 H80         7.7900   -1.4710    2.8490 h1        1 MOL      0.115467
    172 H81         5.6570   -2.1450    1.0500 hn        1 MOL      0.158936
    173 Ca1        -1.2390    0.4060   -1.1610 Ca        1 MOL      1.756965
    174 O23        -0.8680    0.3120   -4.0270 oh        1 MOL     -0.855032
    175 H82        -0.1060    0.2190   -4.5890 ho        1 MOL      0.412398
    176 H83        -1.2180    1.1860   -4.2320 ho        1 MOL      0.412398
    177 O24        -1.3840   -1.9220   -2.4800 oh        1 MOL     -0.855032
    178 H84        -1.5260   -2.8680   -2.4930 ho        1 MOL      0.412398
    179 H85        -0.9550   -1.7340   -3.3070 ho        1 MOL      0.412398
@<TRIPOS>BOND
     1    1    2 1   
     2    1    4 1   
     3    1    5 1   
     4    1    6 1   
     5    2    3 2   
     6    2    7 1   
     7    7    8 1   
     8    7   15 1   
     9    8    9 1   
    10    8   11 1   
    11    8   16 1   
    12    9   10 2   
    13    9   19 1   
    14   11   12 1   
    15   11   17 1   
    16   11   18 1   
    17   12   13 1   
    18   12   14 1   
    19   19   20 1   
    20   19   28 1   
    21   20   21 1   
    22   20   23 1   
    23   20   29 1   
    24   21   22 2   
    25   21   41 1   
    26   23   24 1   
    27   23   30 1   
    28   23   31 1   
    29   24   25 1   
    30   24   32 1   
    31   24   33 1   
    32   25   26 1   
    33   25   34 1   
    34   25   35 1   
    35   26   27 1   
    36   26   36 1   
    37   26   37 1   
    38   27   38 1   
    39   27   39 1   
    40   27   40 1   
    41   41   42 1   
    42   41   49 1   
    43   42   43 1   
    44   42   45 1   
    45   42   50 1   
    46   43   44 2   
    47   43   53 1   
    48   45   46 1   
    49   45   51 1   
    50   45   52 1   
    51   46   47 1   
    52   46   48 1   
    53   53   54 1   
    54   53   57 1   
    55   54   55 1   
    56   54   58 1   
    57   54   59 1   
    58   55   56 2   
    59   55   60 1   
    60   60   61 1   
    61   60   68 1   
    62   61   62 1   
    63   61   64 1   
    64   61   69 1   
    65   62   63 2   
    66   62   74 1   
    67   64   65 1   
    68   64   70 1   
    69   64   71 1   
    70   65   66 1   
    71   65   67 2   
    72   66   72 1   
    73   66   73 1   
    74   74   75 1   
    75   74   78 1   
    76   75   76 1   
    77   75   79 1   
    78   75   80 1   
    79   76   77 2   
    80   76   81 1   
    81   81   82 1   
    82   81   93 1   
    83   82   83 1   
    84   82   85 1   
    85   82   94 1   
    86   83   84 2   
    87   83  102 1   
    88   85   86 1   
    89   85   95 1   
    90   85   96 1   
    91   86   87 ar  
    92   86   88 ar  
    93   87   89 ar  
    94   87   97 1   
    95   88   90 ar  
    96   88   98 1   
    97   89   91 ar  
    98   89   99 1   
    99   90   91 ar  
   100   90  100 1   
   101   91   92 1   
   102   92  101 1   
   103  102  103 1   
   104  102  110 1   
   105  103  104 1   
   106  103  106 1   
   107  103  111 1   
   108  104  105 2   
   109  104  121 1   
   110  106  107 1   
   111  106  108 1   
   112  106  112 1   
   113  107  109 1   
   114  107  113 1   
   115  107  114 1   
   116  108  115 1   
   117  108  116 1   
   118  108  117 1   
   119  109  118 1   
   120  109  119 1   
   121  109  120 1   
   122  121  122 1   
   123  121  127 1   
   124  122  123 1   
   125  122  125 1   
   126  122  128 1   
   127  123  124 2   
   128  123  132 1   
   129  125  126 1   
   130  125  129 1   
   131  125  130 1   
   132  126  131 1   
   133  132  133 1   
   134  132  137 1   
   135  133  134 1   
   136  133  136 1   
   137  133  138 1   
   138  134  135 2   
   139  134  142 1   
   140  136  139 1   
   141  136  140 1   
   142  136  141 1   
   143  142  143 1   
   144  142  147 1   
   145  143  144 1   
   146  143  146 1   
   147  143  148 1   
   148  144  145 2   
   149  144  152 1   
   150  146  149 1   
   151  146  150 1   
   152  146  151 1   
   153  152  153 1   
   154  152  161 1   
   155  153  154 1   
   156  153  156 1   
   157  153  162 1   
   158  154  155 2   
   159  154  167 1   
   160  156  157 1   
   161  156  163 1   
   162  156  164 1   
   163  157  158 1   
   164  157  165 1   
   165  157  166 1   
   166  158  159 1   
   167  158  160 1   
   168  167  168 1   
   169  167  172 1   
   170  168  169 1   
   171  168  170 1   
   172  168  171 1   
   173  174  175 1   
   174  174  176 1   
   175  177  178 1   
   176  177  179 1   
@<TRIPOS>SUBSTRUCTURE
     1 MOL         1 TEMP              0 ****  ****    0 ROOT
