@<TRIPOS>MOLECULE
MOL
  189   185     1     0     0
SMALL
resp


@<TRIPOS>ATOM
      1 C1         -0.0280    2.5640   -4.9920 c3        1 MOL     -0.491150
      2 C2          0.6500    2.4340   -3.6910 c         1 MOL      0.736289
      3 O1         -0.0030    2.6980   -2.6640 o         1 MOL     -0.648930
      4 H1         -0.6580    1.6910   -5.1610 hc        1 MOL      0.132073
      5 H2         -0.6460    3.4630   -4.9920 hc        1 MOL      0.132073
      6 H3          0.7160    2.6340   -5.7850 hc        1 MOL      0.132073
      7 N1          1.9500    2.1930   -3.5810 n         1 MOL     -0.671078
      8 C3          2.6380    1.8030   -2.3120 c3        1 MOL      0.250454
      9 C4          3.1740    3.0360   -1.6040 c         1 MOL      0.617738
     10 O2          4.4000    3.2280   -1.4880 o         1 MOL     -0.498581
     11 C5          3.5420    0.5980   -2.5800 c3        1 MOL     -0.142567
     12 C6          4.4320    0.2110   -1.4240 c         1 MOL      0.588396
     13 O3          5.6330   -0.0560   -1.6000 o         1 MOL     -0.631456
     14 O4          3.9480    0.1730   -0.2610 o         1 MOL     -0.631456
     15 H4          2.3040    1.7060   -4.3890 hn        1 MOL      0.325473
     16 H5          1.8070    1.4470   -1.6940 h1        1 MOL      0.054284
     17 H6          4.1340    0.8030   -3.4670 hc        1 MOL      0.032089
     18 H7          2.9820   -0.2930   -2.8440 hc        1 MOL      0.032089
     19 N2          2.3030    3.9800   -1.2090 n         1 MOL     -0.765537
     20 C7          2.7000    5.3410   -0.6500 c3        1 MOL      0.299919
     21 C8          3.5720    5.2710    0.5860 c         1 MOL      0.352821
     22 O5          4.1440    6.2940    0.9540 o         1 MOL     -0.522772
     23 C9          1.5860    6.3740   -0.4800 c3        1 MOL     -0.195445
     24 C10         0.9280    6.6140   -1.8590 c3        1 MOL      0.197910
     25 C11        -0.0670    7.7430   -1.7010 c3        1 MOL      0.031290
     26 C12        -0.6930    8.2170   -3.0300 c3        1 MOL     -0.175094
     27 N3         -1.5690    7.2310   -3.6740 n4        1 MOL     -0.348346
     28 H8          1.3300    3.9020   -1.4530 hn        1 MOL      0.409965
     29 H9          3.3860    5.8040   -1.3640 h1        1 MOL      0.021889
     30 H10         2.1660    7.2430   -0.1760 hc        1 MOL      0.066419
     31 H11         0.8920    5.9750    0.2590 hc        1 MOL      0.066419
     32 H12         0.3630    5.7200   -2.1320 hc        1 MOL     -0.038549
     33 H13         1.6400    6.9180   -2.6230 hc        1 MOL     -0.038549
     34 H14         0.3660    8.6250   -1.2230 hc        1 MOL      0.023069
     35 H15        -0.7860    7.4060   -0.9500 hc        1 MOL      0.023069
     36 H16         0.1570    8.4050   -3.6910 hx        1 MOL      0.136551
     37 H17        -1.2660    9.1130   -2.7750 hx        1 MOL      0.136551
     38 H18        -1.0630    6.6150   -4.2820 hn        1 MOL      0.340106
     39 H19        -1.9450    6.6810   -2.9160 hn        1 MOL      0.340106
     40 H20        -2.3800    7.6700   -4.0940 hn        1 MOL      0.340106
     41 N4          3.4120    4.1430    1.3410 n         1 MOL     -0.379460
     42 C13         4.2290    3.9230    2.5440 c3        1 MOL      0.227518
     43 C14         5.6060    3.2290    2.2530 c         1 MOL      0.474089
     44 O6          6.4740    3.3400    3.0670 o         1 MOL     -0.535541
     45 C15         3.3660    3.4730    3.6870 c3        1 MOL     -0.354804
     46 C16         2.5200    2.1700    3.4340 c         1 MOL      0.805323
     47 O7          2.5780    1.5680    2.3550 o         1 MOL     -0.705628
     48 O8          1.8360    1.7800    4.3940 o         1 MOL     -0.705628
     49 H21         2.7610    3.4210    1.0880 hn        1 MOL      0.272511
     50 H22         4.5700    4.9120    2.8540 h1        1 MOL      0.040981
     51 H23         2.8380    4.3790    3.9850 hc        1 MOL      0.082503
     52 H24         3.9820    3.2970    4.5730 hc        1 MOL      0.082503
     53 N5          5.7460    2.5230    1.0740 n         1 MOL     -0.059333
     54 C17         6.9990    1.7880    0.6480 c3        1 MOL     -0.084831
     55 C18         7.3580    0.4890    1.3570 c         1 MOL      0.613240
     56 O9          8.1140    0.4560    2.3140 o         1 MOL     -0.551860
     57 H25         4.8830    2.2910    0.6120 hn        1 MOL     -0.013523
     58 H26         7.7290    2.5870    0.6740 h1        1 MOL      0.044749
     59 H27         6.8970    1.5560   -0.4150 h1        1 MOL      0.044749
     60 N6          6.7040   -0.5800    0.9830 n         1 MOL     -0.608842
     61 C19         6.8890   -1.9610    1.5700 c3        1 MOL      0.179044
     62 C20         6.7090   -3.1740    0.5640 c         1 MOL      0.277465
     63 O10         6.6330   -4.3290    0.9060 o         1 MOL     -0.442290
     64 C21         5.9140   -2.1750    2.7660 c3        1 MOL     -0.393148
     65 C22         4.4720   -1.9920    2.3070 c         1 MOL      0.846473
     66 O11         3.6580   -1.4510    3.1080 o         1 MOL     -0.743138
     67 O12         4.0860   -2.3410    1.1950 o         1 MOL     -0.743138
     68 H28         6.0360   -0.4830    0.2420 hn        1 MOL      0.417868
     69 H29         7.8840   -1.9980    2.0200 h1        1 MOL      0.077976
     70 H30         6.0180   -1.3190    3.4380 hc        1 MOL      0.126682
     71 H31         6.1180   -3.1250    3.2550 hc        1 MOL      0.126682
     72 N7          6.7050   -2.8480   -0.7640 n         1 MOL     -0.185521
     73 C23         6.4270   -3.8470   -1.7980 c3        1 MOL     -0.319513
     74 C24         5.0870   -4.5450   -1.7990 c         1 MOL      0.526949
     75 O13         4.9410   -5.6610   -2.3180 o         1 MOL     -0.569475
     76 H32         6.8900   -1.8700   -0.9890 hn        1 MOL      0.209591
     77 H33         7.1560   -4.5840   -1.4810 h1        1 MOL      0.148731
     78 H34         6.6730   -3.3790   -2.7460 h1        1 MOL      0.148731
     79 N8          4.0700   -4.0720   -1.0860 n         1 MOL     -0.151617
     80 C25         2.8010   -4.6620   -1.0190 c3        1 MOL     -0.192325
     81 C26         1.5990   -3.6210   -1.0690 c         1 MOL      0.459280
     82 O14         1.7150   -2.4490   -0.6830 o         1 MOL     -0.611714
     83 C27         2.5930   -5.5160    0.2730 c3        1 MOL      0.521854
     84 C28         3.3170   -6.7820    0.1200 c3        1 MOL     -0.455290
     85 O15         2.9710   -4.8730    1.4420 oh        1 MOL     -0.587185
     86 H35         4.3170   -3.2950   -0.5040 hn        1 MOL      0.229927
     87 H36         2.6550   -5.3450   -1.8540 h1        1 MOL      0.103733
     88 H37         1.5760   -5.9060    0.2960 h1        1 MOL     -0.056506
     89 H38         3.2250   -3.9970    1.1360 ho        1 MOL      0.365238
     90 H39         3.1300   -7.3770   -0.7800 hc        1 MOL      0.112091
     91 H40         4.3900   -6.6520    0.2230 hc        1 MOL      0.112091
     92 H41         3.0420   -7.3670    0.9930 hc        1 MOL      0.112091
     93 N9          0.4350   -4.0030   -1.5880 n         1 MOL     -0.424660
     94 C29        -0.6670   -3.0670   -1.7460 c3        1 MOL      0.062203
     95 C30        -1.8180   -3.6910   -0.9240 c         1 MOL      0.329601
     96 O16        -2.3850   -4.7900   -1.2110 o         1 MOL     -0.547188
     97 C31        -1.0250   -2.9140   -3.2580 c3        1 MOL      0.488889
     98 C32         0.1430   -2.5320   -4.1880 c3        1 MOL     -0.064125
     99 C33        -2.1320   -1.8210   -3.3890 c3        1 MOL     -0.551590
    100 C34        -0.1140   -2.5140   -5.6900 c3        1 MOL     -0.220677
    101 H42         0.3180   -4.9770   -1.8310 hn        1 MOL      0.270405
    102 H43        -0.4960   -2.0790   -1.3280 h1        1 MOL      0.036797
    103 H44        -1.3980   -3.8940   -3.5650 hc        1 MOL     -0.082379
    104 H45         0.8230   -3.3590   -3.9640 hc        1 MOL      0.029330
    105 H46         0.5080   -1.5730   -3.8270 hc        1 MOL      0.029330
    106 H47        -3.0220   -2.2740   -2.9500 hc        1 MOL      0.088525
    107 H48        -1.9100   -0.8450   -2.9370 hc        1 MOL      0.088525
    108 H49        -2.3280   -1.6310   -4.4450 hc        1 MOL      0.088525
    109 H50        -0.8000   -3.3260   -5.9190 hc        1 MOL      0.056511
    110 H51        -0.6420   -1.5940   -5.9530 hc        1 MOL      0.056511
    111 H52         0.7160   -2.6970   -6.3680 hc        1 MOL      0.056511
    112 N10        -2.3180   -2.9070    0.0000 n         1 MOL     -0.191031
    113 C35        -3.5520   -3.0950    0.7870 c3        1 MOL      0.008584
    114 C36        -4.7450   -2.4330    0.0810 c         1 MOL      0.492446
    115 O17        -4.6570   -1.7960   -0.9010 o         1 MOL     -0.364454
    116 C37        -3.4790   -2.4820    2.1740 c3        1 MOL      0.157430
    117 C38        -2.3400   -3.0510    2.9670 c3        1 MOL     -0.377581
    118 O18        -3.1350   -1.1220    2.1100 oh        1 MOL     -0.560231
    119 H53        -1.8940   -1.9950    0.0780 hn        1 MOL      0.327538
    120 H54        -3.7280   -4.1690    0.9240 h1        1 MOL      0.081470
    121 H55        -4.4580   -2.5400    2.6340 h1        1 MOL      0.032362
    122 H56        -2.2320   -1.0580    1.7660 ho        1 MOL      0.352486
    123 H57        -2.5260   -4.0960    3.2170 hc        1 MOL      0.106641
    124 H58        -1.4320   -2.9280    2.3810 hc        1 MOL      0.106641
    125 H59        -2.2760   -2.5720    3.9410 hc        1 MOL      0.106641
    126 N11        -5.9610   -2.8220    0.4670 n         1 MOL     -0.480931
    127 C39        -7.1990   -2.3900   -0.2030 c3        1 MOL      0.114391
    128 C40        -7.5390   -0.9450   -0.0290 c         1 MOL      0.294342
    129 O19        -8.1190   -0.4600   -1.0200 o         1 MOL     -0.480197
    130 C41        -8.3840   -3.2580    0.1630 c3        1 MOL      0.559105
    131 C42        -9.4670   -3.3070   -0.8630 c3        1 MOL     -0.508682
    132 O20        -7.9590   -4.5730    0.3530 oh        1 MOL     -0.630709
    133 H60        -6.0710   -3.4060    1.2910 hn        1 MOL      0.214964
    134 H61        -7.0830   -2.4310   -1.2890 h1        1 MOL      0.097589
    135 H62        -8.7360   -2.8680    1.1150 h1        1 MOL     -0.112079
    136 H63        -8.6230   -4.9780    0.9300 ho        1 MOL      0.382667
    137 H64       -10.2850   -3.8540   -0.4080 hc        1 MOL      0.128064
    138 H65        -9.6630   -2.2480   -1.0260 hc        1 MOL      0.128064
    139 H66        -9.0010   -3.8050   -1.7150 hc        1 MOL      0.128064
    140 N12        -7.1040   -0.2820    1.0050 n         1 MOL     -0.356054
    141 C43        -7.2730    1.2080    1.0940 c3        1 MOL      0.106018
    142 C44        -6.2810    1.9400    0.1250 c         1 MOL      0.313804
    143 O21        -6.7050    2.8610   -0.5770 o         1 MOL     -0.467354
    144 C45        -7.0790    1.7440    2.5260 c3        1 MOL     -0.313020
    145 C46        -8.3710    1.3070    3.3020 c3        1 MOL      0.011369
    146 C47        -8.3650    2.1440    4.5400 c3        1 MOL     -0.064346
    147 C48        -7.2170    1.7420    5.4090 c3        1 MOL      0.128481
    148 N13        -6.9050    2.6090    6.5430 n4        1 MOL     -0.420372
    149 H67        -6.9460   -0.7590    1.8880 hn        1 MOL      0.297361
    150 H68        -8.2600    1.5160    0.7330 h1        1 MOL      0.102322
    151 H69        -7.0560    2.8210    2.3970 hc        1 MOL      0.127427
    152 H70        -6.2640    1.2420    3.0480 hc        1 MOL      0.127427
    153 H71        -8.5110    0.2480    3.5090 hc        1 MOL      0.039730
    154 H72        -9.2270    1.6560    2.7290 hc        1 MOL      0.039730
    155 H73        -9.2630    2.0060    5.1470 hc        1 MOL      0.045434
    156 H74        -8.3370    3.2040    4.3100 hc        1 MOL      0.045434
    157 H75        -6.2510    1.6290    4.9100 hx        1 MOL      0.053845
    158 H76        -7.3730    0.7210    5.7860 hx        1 MOL      0.053845
    159 H77        -6.2300    2.1280    7.1200 hn        1 MOL      0.323984
    160 H78        -6.5550    3.5250    6.3170 hn        1 MOL      0.323984
    161 H79        -7.7380    2.7510    7.1060 hn        1 MOL      0.323984
    162 N14        -5.0500    1.3640   -0.0830 n         1 MOL     -0.109241
    163 C49        -4.1610    1.8560   -1.1100 c3        1 MOL     -0.229064
    164 C50        -4.6600    1.5600   -2.5860 c         1 MOL      0.461375
    165 O22        -4.4500    2.4310   -3.4270 o         1 MOL     -0.585313
    166 C51        -2.7490    1.1990   -1.0860 c3        1 MOL     -0.032921
    167 C52        -1.9920    1.3490    0.2210 c3        1 MOL     -0.191045
    168 C53        -0.6580    0.5620    0.1630 c         1 MOL      0.850299
    169 O23        -0.7260   -0.6690    0.4140 o         1 MOL     -0.729816
    170 O24         0.4410    1.0960    0.1830 o         1 MOL     -0.729816
    171 H80        -4.7640    0.4750    0.3180 hn        1 MOL      0.158887
    172 H81        -4.2080    2.9400   -1.0000 h1        1 MOL      0.130089
    173 H82        -2.1420    1.4600   -1.9470 hc        1 MOL      0.110404
    174 H83        -2.7910    0.1160   -1.1060 hc        1 MOL      0.110404
    175 H84        -2.6390    1.0060    1.0270 hc        1 MOL      0.001995
    176 H85        -1.7370    2.4060    0.3090 hc        1 MOL      0.001995
    177 N15        -5.3150    0.4240   -2.9340 n         1 MOL     -0.010183
    178 C54        -5.8830    0.1970   -4.2180 c3        1 MOL     -0.308534
    179 H86        -6.8570   -0.2780   -4.1040 h1        1 MOL      0.108343
    180 H87        -6.0030    1.1490   -4.7360 h1        1 MOL      0.108343
    181 H88        -5.2280   -0.4530   -4.7970 h1        1 MOL      0.108343
    182 H89        -5.3910   -0.2790   -2.2170 hn        1 MOL      0.133506
    183 Ca1         1.9710   -0.7070    1.2890 Ca        1 MOL      1.679650
    184 O25         1.1170   -2.9250    2.3760 oh        1 MOL     -0.859891
    185 H90         1.7620   -3.6280    2.3880 ho        1 MOL      0.393589
    186 H91         0.5120   -3.1420    3.0790 ho        1 MOL      0.393589
    187 O26         0.3800   -0.0620    3.3490 oh        1 MOL     -0.859891
    188 H92         0.8450    0.7070    3.6980 ho        1 MOL      0.393589
    189 H93         0.1500   -0.5800    4.1290 ho        1 MOL      0.393589
@<TRIPOS>BOND
     1    1    2 1   
     2    1    4 1   
     3    1    5 1   
     4    1    6 1   
     5    2    3 2   
     6    2    7 1   
     7    7    8 1   
     8    7   15 1   
     9    8    9 1   
    10    8   11 1   
    11    8   16 1   
    12    9   10 2   
    13    9   19 1   
    14   11   12 1   
    15   11   17 1   
    16   11   18 1   
    17   12   13 1   
    18   12   14 1   
    19   19   20 1   
    20   19   28 1   
    21   20   21 1   
    22   20   23 1   
    23   20   29 1   
    24   21   22 2   
    25   21   41 1   
    26   23   24 1   
    27   23   30 1   
    28   23   31 1   
    29   24   25 1   
    30   24   32 1   
    31   24   33 1   
    32   25   26 1   
    33   25   34 1   
    34   25   35 1   
    35   26   27 1   
    36   26   36 1   
    37   26   37 1   
    38   27   38 1   
    39   27   39 1   
    40   27   40 1   
    41   41   42 1   
    42   41   49 1   
    43   42   43 1   
    44   42   45 1   
    45   42   50 1   
    46   43   44 2   
    47   43   53 1   
    48   45   46 1   
    49   45   51 1   
    50   45   52 1   
    51   46   47 1   
    52   46   48 1   
    53   53   54 1   
    54   53   57 1   
    55   54   55 1   
    56   54   58 1   
    57   54   59 1   
    58   55   56 2   
    59   55   60 1   
    60   60   61 1   
    61   60   68 1   
    62   61   62 1   
    63   61   64 1   
    64   61   69 1   
    65   62   63 2   
    66   62   72 1   
    67   64   65 1   
    68   64   70 1   
    69   64   71 1   
    70   65   66 1   
    71   65   67 1   
    72   72   73 1   
    73   72   76 1   
    74   73   74 1   
    75   73   77 1   
    76   73   78 1   
    77   74   75 2   
    78   74   79 1   
    79   79   80 1   
    80   79   86 1   
    81   80   81 1   
    82   80   83 1   
    83   80   87 1   
    84   81   82 2   
    85   81   93 1   
    86   83   84 1   
    87   83   85 1   
    88   83   88 1   
    89   84   90 1   
    90   84   91 1   
    91   84   92 1   
    92   85   89 1   
    93   93   94 1   
    94   93  101 1   
    95   94   95 1   
    96   94   97 1   
    97   94  102 1   
    98   95   96 2   
    99   95  112 1   
   100   97   98 1   
   101   97   99 1   
   102   97  103 1   
   103   98  100 1   
   104   98  104 1   
   105   98  105 1   
   106   99  106 1   
   107   99  107 1   
   108   99  108 1   
   109  100  109 1   
   110  100  110 1   
   111  100  111 1   
   112  112  113 1   
   113  112  119 1   
   114  113  114 1   
   115  113  116 1   
   116  113  120 1   
   117  114  115 2   
   118  114  126 1   
   119  116  117 1   
   120  116  118 1   
   121  116  121 1   
   122  117  123 1   
   123  117  124 1   
   124  117  125 1   
   125  118  122 1   
   126  126  127 1   
   127  126  133 1   
   128  127  128 1   
   129  127  130 1   
   130  127  134 1   
   131  128  129 2   
   132  128  140 1   
   133  130  131 1   
   134  130  132 1   
   135  130  135 1   
   136  131  137 1   
   137  131  138 1   
   138  131  139 1   
   139  132  136 1   
   140  140  141 1   
   141  140  149 1   
   142  141  142 1   
   143  141  144 1   
   144  141  150 1   
   145  142  143 2   
   146  142  162 1   
   147  144  145 1   
   148  144  151 1   
   149  144  152 1   
   150  145  146 1   
   151  145  153 1   
   152  145  154 1   
   153  146  147 1   
   154  146  155 1   
   155  146  156 1   
   156  147  148 1   
   157  147  157 1   
   158  147  158 1   
   159  148  159 1   
   160  148  160 1   
   161  148  161 1   
   162  162  163 1   
   163  162  171 1   
   164  163  164 1   
   165  163  166 1   
   166  163  172 1   
   167  164  165 2   
   168  164  177 1   
   169  166  167 1   
   170  166  173 1   
   171  166  174 1   
   172  167  168 1   
   173  167  175 1   
   174  167  176 1   
   175  168  169 1   
   176  168  170 1   
   177  177  178 1   
   178  177  182 1   
   179  178  179 1   
   180  178  180 1   
   181  178  181 1   
   182  184  185 1   
   183  184  186 1   
   184  187  188 1   
   185  187  189 1   
@<TRIPOS>SUBSTRUCTURE
     1 MOL         1 TEMP              0 ****  ****    0 ROOT
