@<TRIPOS>MOLECULE
MOL
  189   185     1     0     0
SMALL
resp


@<TRIPOS>ATOM
      1 C1          0.0870   -1.8960    6.5240 c3        1 MOL     -0.470292
      2 C2          0.5990   -1.9930    5.0750 c         1 MOL      0.754180
      3 O1          0.6620   -0.9830    4.3670 o         1 MOL     -0.591871
      4 H1         -0.4340   -2.8170    6.7870 hc        1 MOL      0.125496
      5 H2          0.9300   -1.7510    7.1980 hc        1 MOL      0.125496
      6 H3         -0.6000   -1.0540    6.6120 hc        1 MOL      0.125496
      7 N1          1.1050   -3.1850    4.6450 n         1 MOL     -0.625041
      8 C3          1.7940   -3.3850    3.3750 c3        1 MOL      0.360870
      9 C4          1.4850   -4.6240    2.5050 c         1 MOL      0.319029
     10 O2          1.3720   -5.7860    2.9270 o         1 MOL     -0.560947
     11 C5          3.3350   -3.3130    3.5970 c3        1 MOL     -0.345253
     12 C6          4.1540   -2.7890    2.3100 c         1 MOL      0.761162
     13 O3          5.3520   -2.4910    2.4300 o         1 MOL     -0.695899
     14 O4          3.5750   -2.5130    1.2440 o         1 MOL     -0.695899
     15 H4          0.8220   -4.0180    5.1360 hn        1 MOL      0.303389
     16 H5          1.5760   -2.4980    2.7850 h1        1 MOL     -0.015364
     17 H6          3.6600   -4.3320    3.8160 hc        1 MOL      0.075498
     18 H7          3.5320   -2.6560    4.4390 hc        1 MOL      0.075498
     19 N2          1.2890   -4.3320    1.2250 n         1 MOL     -0.121625
     20 C7          0.9340   -5.2820    0.1780 c3        1 MOL     -0.081112
     21 C8          2.1800   -5.5690   -0.7410 c         1 MOL      0.653220
     22 O5          2.4530   -6.7090   -1.1810 o         1 MOL     -0.600784
     23 C9         -0.4520   -5.0410   -0.4870 c3        1 MOL      0.284619
     24 C10        -1.5110   -5.0020    0.6300 c3        1 MOL     -0.122792
     25 C11        -0.7560   -6.1090   -1.5900 c3        1 MOL     -0.440868
     26 C12        -2.9450   -4.7410    0.1880 c3        1 MOL     -0.036908
     27 H8          1.2380   -3.3500    0.9700 hn        1 MOL      0.284109
     28 H9          0.7910   -6.2370    0.6890 h1        1 MOL      0.044133
     29 H10        -0.3930   -4.0290   -0.8690 hc        1 MOL     -0.025769
     30 H11        -1.2700   -4.2450    1.3690 hc        1 MOL      0.009640
     31 H12        -1.4150   -5.9480    1.1650 hc        1 MOL      0.009640
     32 H13        -0.6240   -7.0140   -1.0080 hc        1 MOL      0.103189
     33 H14        -1.7960   -6.0400   -1.9050 hc        1 MOL      0.103189
     34 H15        -0.0410   -5.9510   -2.3960 hc        1 MOL      0.103189
     35 H16        -3.6310   -4.7160    1.0410 hc        1 MOL      0.029420
     36 H17        -3.0680   -3.9040   -0.4910 hc        1 MOL      0.029420
     37 H18        -3.3880   -5.5560   -0.3900 hc        1 MOL      0.029420
     38 N3          3.0210   -4.5410   -0.9650 n         1 MOL     -0.577934
     39 C13         3.9090   -4.5210   -2.2440 c3        1 MOL      0.239992
     40 C14         5.3800   -4.0740   -1.9860 c         1 MOL      0.299043
     41 O6          6.2420   -4.3980   -2.8250 o         1 MOL     -0.538647
     42 C15         3.2920   -3.6340   -3.2660 c3        1 MOL     -0.357881
     43 C16         2.9630   -2.2010   -2.8290 c         1 MOL      0.762617
     44 O7          3.3530   -1.7190   -1.7460 o         1 MOL     -0.712100
     45 O8          2.1460   -1.4800   -3.5050 o         1 MOL     -0.712100
     46 H19         2.7730   -3.6600   -0.5250 hn        1 MOL      0.201695
     47 H20         3.9270   -5.5240   -2.6440 h1        1 MOL      0.070150
     48 H21         2.3310   -4.0950   -3.4640 hc        1 MOL      0.101423
     49 H22         3.8620   -3.5580   -4.1960 hc        1 MOL      0.101423
     50 N4          5.5530   -3.2880   -0.9100 n         1 MOL      0.005624
     51 C17         6.7940   -2.7040   -0.5960 c3        1 MOL     -0.360708
     52 C18         7.2480   -1.4120   -1.3600 c         1 MOL      0.628237
     53 O9          8.4600   -1.1840   -1.3590 o         1 MOL     -0.624708
     54 H23         4.7470   -3.0740   -0.3500 hn        1 MOL      0.104395
     55 H24         7.5400   -3.4640   -0.8050 h1        1 MOL      0.130682
     56 H25         6.7730   -2.4640    0.4670 h1        1 MOL      0.130682
     57 N5          6.3370   -0.6410   -1.9370 n         1 MOL     -0.348561
     58 C19         6.6290    0.5990   -2.6880 c3        1 MOL     -0.091551
     59 C20         7.1410    1.8180   -1.8620 c         1 MOL      0.508031
     60 O10         7.5260    2.8360   -2.4490 o         1 MOL     -0.561545
     61 C21         5.3910    0.9730   -3.5000 c3        1 MOL     -0.099926
     62 C22         4.1360    1.4460   -2.8620 c         1 MOL      0.759022
     63 O11         4.0390    1.3070   -1.6070 o         1 MOL     -0.683913
     64 O12         3.2200    1.7980   -3.6050 o         1 MOL     -0.683913
     65 H26         5.4000   -1.0130   -1.9100 hn        1 MOL      0.284563
     66 H27         7.3740    0.3560   -3.4520 h1        1 MOL      0.100814
     67 H28         5.1010    0.1810   -4.1920 hc        1 MOL      0.032498
     68 H29         5.7850    1.6950   -4.2080 hc        1 MOL      0.032498
     69 N6          7.0390    1.6700   -0.5560 n         1 MOL     -0.301306
     70 C23         7.3300    2.7440    0.4590 c3        1 MOL     -0.147870
     71 C24         6.2060    3.7670    0.6530 c         1 MOL      0.469596
     72 O13         6.3640    4.7530    1.3900 o         1 MOL     -0.604379
     73 H30         6.5510    0.8880   -0.1600 hn        1 MOL      0.254918
     74 H31         8.2280    3.2930    0.1860 h1        1 MOL      0.100617
     75 H32         7.5660    2.3160    1.4290 h1        1 MOL      0.100617
     76 N7          5.0530    3.4590    0.0900 n         1 MOL     -0.187450
     77 C25         3.7830    4.2940    0.3260 c3        1 MOL      0.029916
     78 C26         2.6050    3.4380    0.8890 c         1 MOL      0.468582
     79 O14         2.5330    2.2240    0.7640 o         1 MOL     -0.513285
     80 C27         3.4200    4.9020   -0.9570 c3        1 MOL      0.101584
     81 C28         4.4080    5.9000   -1.5620 c3        1 MOL     -0.248389
     82 C29         4.3570    7.3280   -0.9770 c         1 MOL      0.668334
     83 N8          5.4650    8.0310   -0.8790 n         1 MOL     -0.794222
     84 O15         3.3510    7.9680   -0.7240 o         1 MOL     -0.575843
     85 H33         4.9310    2.5350   -0.2940 hn        1 MOL      0.107956
     86 H34         3.8480    5.0690    1.0850 h1        1 MOL      0.046968
     87 H35         2.5570    5.5270   -0.7280 hc        1 MOL     -0.000446
     88 H36         3.3230    4.0640   -1.6330 hc        1 MOL     -0.000446
     89 H37         4.3030    6.0040   -2.6450 hc        1 MOL      0.088040
     90 H38         5.4080    5.4800   -1.5060 hc        1 MOL      0.088040
     91 H39         6.3900    7.6190   -0.9520 hn        1 MOL      0.349945
     92 H40         5.2860    8.9810   -0.5780 hn        1 MOL      0.349945
     93 N9          1.6080    4.1300    1.5500 n         1 MOL     -0.511570
     94 C30         0.2090    3.4720    1.6730 c3        1 MOL      0.028529
     95 C31        -0.5760    3.7880    0.3580 c         1 MOL      0.495922
     96 O16        -0.7380    4.9230   -0.1230 o         1 MOL     -0.543964
     97 C32        -0.5420    4.0540    2.9470 c3        1 MOL      0.318292
     98 C33        -1.9120    3.4280    3.2710 c3        1 MOL     -0.318797
     99 C34         0.2960    4.1050    4.2670 c3        1 MOL     -0.318797
    100 H41         1.7400    5.0390    1.9610 hn        1 MOL      0.321118
    101 H42         0.3660    2.4030    1.8050 h1        1 MOL      0.081499
    102 H43        -0.7500    5.0900    2.6700 hc        1 MOL     -0.051152
    103 H44        -2.5810    4.0930    3.8060 hc        1 MOL      0.064543
    104 H45        -2.3450    3.2450    2.2950 hc        1 MOL      0.064543
    105 H46        -1.8070    2.4790    3.8040 hc        1 MOL      0.064543
    106 H47         0.8050    3.1510    4.3890 hc        1 MOL      0.064543
    107 H48         1.0330    4.9050    4.1060 hc        1 MOL      0.064543
    108 H49        -0.3320    4.3540    5.1140 hc        1 MOL      0.064543
    109 N10        -1.1600    2.6750   -0.2050 n         1 MOL     -0.309345
    110 C35        -2.2320    2.6460   -1.2420 c3        1 MOL      0.111604
    111 C36        -3.7270    2.5260   -0.6430 c         1 MOL      0.477721
    112 O17        -3.8400    2.3270    0.5400 o         1 MOL     -0.384322
    113 C37        -1.8960    1.7470   -2.4580 c3        1 MOL     -0.187933
    114 C38        -2.5190    0.3500   -2.3130 c         1 MOL      0.606078
    115 N11        -1.6930   -0.5710   -1.9150 n         1 MOL     -0.632243
    116 O18        -3.6640    0.1260   -2.5480 o         1 MOL     -0.578606
    117 H50        -0.9500    1.7580    0.1700 hn        1 MOL      0.207937
    118 H51        -2.3190    3.6960   -1.5480 h1        1 MOL      0.035649
    119 H52        -0.8350    1.7440   -2.7010 hc        1 MOL      0.075103
    120 H53        -2.3220    2.1670   -3.3680 hc        1 MOL      0.075103
    121 H54        -0.7210   -0.3310   -1.7630 hn        1 MOL      0.338616
    122 H55        -2.0450   -1.5070   -1.7450 hn        1 MOL      0.338616
    123 N12        -4.8040    2.6720   -1.4440 n         1 MOL     -0.568120
    124 C39        -6.2310    2.5660   -1.0380 c3        1 MOL      0.243134
    125 C40        -6.5540    1.3070   -0.3540 c         1 MOL      0.150800
    126 O19        -7.3450    1.2680    0.6640 o         1 MOL     -0.496317
    127 C41        -7.1130    2.7830   -2.3030 c3        1 MOL     -0.090705
    128 C42        -8.5450    2.2900   -1.9000 ca        1 MOL     -0.185185
    129 C43        -9.5710    3.0810   -1.1980 ca        1 MOL     -0.007817
    130 C44        -8.9710    0.9820   -2.3600 ca        1 MOL     -0.007817
    131 C45       -10.8790    2.6440   -1.0750 ca        1 MOL     -0.376433
    132 C46       -10.2210    0.4910   -1.9850 ca        1 MOL     -0.376433
    133 C47       -11.1590    1.3100   -1.2860 ca        1 MOL      0.506126
    134 O20       -12.3580    0.7650   -0.9340 oh        1 MOL     -0.576892
    135 H56        -4.5690    2.8320   -2.4160 hn        1 MOL      0.267497
    136 H57        -6.4820    3.3850   -0.3680 h1        1 MOL      0.063272
    137 H58        -6.8000    2.2840   -3.2270 hc        1 MOL      0.065263
    138 H59        -7.2060    3.8470   -2.4960 hc        1 MOL      0.065263
    139 H60        -9.3400    4.1000   -0.9080 ha        1 MOL      0.100590
    140 H61        -8.2730    0.4140   -2.9540 ha        1 MOL      0.100590
    141 H62       -11.6950    3.2710   -0.7720 ha        1 MOL      0.149993
    142 H63       -10.6180   -0.4500   -2.3350 ha        1 MOL      0.149993
    143 H64       -12.4390   -0.1430   -1.2510 ho        1 MOL      0.393377
    144 N13        -5.9770    0.2160   -0.8000 n         1 MOL      0.138938
    145 C48        -6.0770   -1.1140   -0.1760 c3        1 MOL     -0.054623
    146 C49        -5.2790   -1.3600    1.1100 c         1 MOL      0.361981
    147 O21        -5.5990   -2.3290    1.8220 o         1 MOL     -0.507747
    148 C50        -5.7290   -2.2540   -1.2070 c3        1 MOL      0.121055
    149 C51        -6.8610   -2.2270   -2.2810 c3        1 MOL     -0.248885
    150 C52        -6.8310   -3.3670   -3.3110 c         1 MOL      0.667036
    151 O22        -7.0230   -3.0660   -4.5300 o         1 MOL     -0.732400
    152 O23        -6.6660   -4.5790   -2.9360 o         1 MOL     -0.732400
    153 H65        -5.4460    0.2430   -1.6550 hn        1 MOL      0.170319
    154 H66        -7.1090   -1.3380    0.0770 h1        1 MOL      0.074942
    155 H67        -5.7550   -3.2150   -0.7050 hc        1 MOL     -0.007275
    156 H68        -4.7370   -2.0350   -1.6070 hc        1 MOL     -0.007275
    157 H69        -6.6610   -1.3160   -2.8550 hc        1 MOL      0.051777
    158 H70        -7.8860   -2.2700   -1.9160 hc        1 MOL      0.051777
    159 N14        -4.2920   -0.4990    1.4510 n         1 MOL     -0.348404
    160 C53        -3.5160   -0.5640    2.6920 c3        1 MOL      0.043585
    161 C54        -4.1480    0.3580    3.7450 c         1 MOL      0.591534
    162 O24        -4.1600    0.0760    4.9470 o         1 MOL     -0.601424
    163 C55        -2.0320   -0.2540    2.4420 c3        1 MOL     -0.074266
    164 C56        -1.3680   -1.4260    1.5810 c3        1 MOL      0.313497
    165 C57        -0.1130   -1.0140    0.8160 c         1 MOL      0.344662
    166 O25         0.6710   -1.8550    0.4650 o         1 MOL     -0.629654
    167 O26         0.2790    0.1650    0.7350 o         1 MOL     -0.629654
    168 H71        -4.0940    0.2170    0.7640 hn        1 MOL      0.119999
    169 H72        -3.5510   -1.5420    3.1850 h1        1 MOL      0.035672
    170 H73        -1.5920   -0.2250    3.4380 hc        1 MOL      0.021854
    171 H74        -1.9680    0.6690    1.8700 hc        1 MOL      0.021854
    172 H75        -2.1260   -1.8530    0.9260 hc        1 MOL     -0.059593
    173 H76        -1.0950   -2.2270    2.2790 hc        1 MOL     -0.059593
    174 N15        -4.6590    1.5170    3.2800 n         1 MOL     -0.159985
    175 C58        -5.4600    2.3880    4.1240 c3        1 MOL     -0.246430
    176 H77        -5.4790    3.3900    3.6950 h1        1 MOL      0.087966
    177 H78        -6.4760    2.0010    4.1850 h1        1 MOL      0.087966
    178 H79        -5.0240    2.4300    5.1230 h1        1 MOL      0.087966
    179 H80        -4.4060    1.8100    2.3450 hn        1 MOL      0.162786
    180 Ca1         2.6680   -0.2650    0.1910 Ca        1 MOL      1.748469
    181 O27         2.7170   -0.0470    2.9060 oh        1 MOL     -0.886130
    182 H81         1.8960   -0.3360    3.3150 ho        1 MOL      0.424945
    183 H82         3.1860    0.4010    3.6100 ho        1 MOL      0.424945
    184 O28         5.4680   -0.0680    1.1220 oh        1 MOL     -0.886130
    185 H83         5.8670    0.4950    1.7830 ho        1 MOL      0.424945
    186 H84         5.3280   -0.9060    1.5690 ho        1 MOL      0.424945
    187 O29         1.3280    0.6330   -2.1450 oh        1 MOL     -0.886130
    188 H85         1.3990   -0.0800   -2.7790 ho        1 MOL      0.424945
    189 H86         1.9850    1.2700   -2.4340 ho        1 MOL      0.424945
@<TRIPOS>BOND
     1    1    2 1   
     2    1    4 1   
     3    1    5 1   
     4    1    6 1   
     5    2    3 2   
     6    2    7 1   
     7    7    8 1   
     8    7   15 1   
     9    8    9 1   
    10    8   11 1   
    11    8   16 1   
    12    9   10 2   
    13    9   19 1   
    14   11   12 1   
    15   11   17 1   
    16   11   18 1   
    17   12   13 1   
    18   12   14 1   
    19   19   20 1   
    20   19   27 1   
    21   20   21 1   
    22   20   23 1   
    23   20   28 1   
    24   21   22 2   
    25   21   38 1   
    26   23   24 1   
    27   23   25 1   
    28   23   29 1   
    29   24   26 1   
    30   24   30 1   
    31   24   31 1   
    32   25   32 1   
    33   25   33 1   
    34   25   34 1   
    35   26   35 1   
    36   26   36 1   
    37   26   37 1   
    38   38   39 1   
    39   38   46 1   
    40   39   40 1   
    41   39   42 1   
    42   39   47 1   
    43   40   41 2   
    44   40   50 1   
    45   42   43 1   
    46   42   48 1   
    47   42   49 1   
    48   43   44 1   
    49   43   45 1   
    50   50   51 1   
    51   50   54 1   
    52   51   52 1   
    53   51   55 1   
    54   51   56 1   
    55   52   53 2   
    56   52   57 1   
    57   57   58 1   
    58   57   65 1   
    59   58   59 1   
    60   58   61 1   
    61   58   66 1   
    62   59   60 2   
    63   59   69 1   
    64   61   62 1   
    65   61   67 1   
    66   61   68 1   
    67   62   63 1   
    68   62   64 1   
    69   69   70 1   
    70   69   73 1   
    71   70   71 1   
    72   70   74 1   
    73   70   75 1   
    74   71   72 2   
    75   71   76 1   
    76   76   77 1   
    77   76   85 1   
    78   77   78 1   
    79   77   80 1   
    80   77   86 1   
    81   78   79 2   
    82   78   93 1   
    83   80   81 1   
    84   80   87 1   
    85   80   88 1   
    86   81   82 1   
    87   81   89 1   
    88   81   90 1   
    89   82   83 1   
    90   82   84 2   
    91   83   91 1   
    92   83   92 1   
    93   93   94 1   
    94   93  100 1   
    95   94   95 1   
    96   94   97 1   
    97   94  101 1   
    98   95   96 2   
    99   95  109 1   
   100   97   98 1   
   101   97   99 1   
   102   97  102 1   
   103   98  103 1   
   104   98  104 1   
   105   98  105 1   
   106   99  106 1   
   107   99  107 1   
   108   99  108 1   
   109  109  110 1   
   110  109  117 1   
   111  110  111 1   
   112  110  113 1   
   113  110  118 1   
   114  111  112 2   
   115  111  123 1   
   116  113  114 1   
   117  113  119 1   
   118  113  120 1   
   119  114  115 1   
   120  114  116 2   
   121  115  121 1   
   122  115  122 1   
   123  123  124 1   
   124  123  135 1   
   125  124  125 1   
   126  124  127 1   
   127  124  136 1   
   128  125  126 2   
   129  125  144 1   
   130  127  128 1   
   131  127  137 1   
   132  127  138 1   
   133  128  129 ar  
   134  128  130 ar  
   135  129  131 ar  
   136  129  139 1   
   137  130  132 ar  
   138  130  140 1   
   139  131  133 ar  
   140  131  141 1   
   141  132  133 ar  
   142  132  142 1   
   143  133  134 1   
   144  134  143 1   
   145  144  145 1   
   146  144  153 1   
   147  145  146 1   
   148  145  148 1   
   149  145  154 1   
   150  146  147 2   
   151  146  159 1   
   152  148  149 1   
   153  148  155 1   
   154  148  156 1   
   155  149  150 1   
   156  149  157 1   
   157  149  158 1   
   158  150  151 1   
   159  150  152 1   
   160  159  160 1   
   161  159  168 1   
   162  160  161 1   
   163  160  163 1   
   164  160  169 1   
   165  161  162 2   
   166  161  174 1   
   167  163  164 1   
   168  163  170 1   
   169  163  171 1   
   170  164  165 1   
   171  164  172 1   
   172  164  173 1   
   173  165  166 1   
   174  165  167 1   
   175  174  175 1   
   176  174  179 1   
   177  175  176 1   
   178  175  177 1   
   179  175  178 1   
   180  181  182 1   
   181  181  183 1   
   182  184  185 1   
   183  184  186 1   
   184  187  188 1   
   185  187  189 1   
@<TRIPOS>SUBSTRUCTURE
     1 MOL         1 TEMP              0 ****  ****    0 ROOT
