@<TRIPOS>MOLECULE
MOL
  175   173     1     0     0
SMALL
resp


@<TRIPOS>ATOM
      1 C1          0.1760    4.9150    5.4170 c3        1 MOL     -0.405474
      2 C2         -0.4190    4.5510    4.0210 c         1 MOL      0.752207
      3 O1          0.2700    4.4730    3.0540 o         1 MOL     -0.553323
      4 H1          0.8860    4.1460    5.7190 hc        1 MOL      0.097702
      5 H2          0.6860    5.8760    5.3560 hc        1 MOL      0.097702
      6 H3         -0.6280    4.9750    6.1500 hc        1 MOL      0.097702
      7 N1         -1.7500    4.3550    3.8710 n         1 MOL     -0.681841
      8 C3         -2.3200    3.7020    2.6840 c3        1 MOL      0.029496
      9 C4         -2.7150    4.8150    1.7470 c         1 MOL      0.771095
     10 O2         -3.2510    5.8930    2.0050 o         1 MOL     -0.618603
     11 C5         -3.5780    2.7620    2.9650 c3        1 MOL     -0.141792
     12 C6         -4.2720    2.2620    1.6790 c         1 MOL      0.526771
     13 O3         -5.5090    2.4680    1.5720 o         1 MOL     -0.579709
     14 O4         -3.5410    1.7960    0.7640 o         1 MOL     -0.579709
     15 H4         -2.3410    4.5620    4.6650 hn        1 MOL      0.330944
     16 H5         -1.4860    3.1820    2.2300 h1        1 MOL      0.109370
     17 H6         -4.2240    3.3460    3.6160 hc        1 MOL      0.026146
     18 H7         -3.2730    1.8840    3.5230 hc        1 MOL      0.026146
     19 N2         -2.4260    4.5210    0.4660 n         1 MOL     -0.550315
     20 C7         -2.6560    5.3750   -0.7070 c3        1 MOL      0.252635
     21 C8         -3.8120    4.9700   -1.5900 c         1 MOL      0.348496
     22 O5         -4.3760    5.8420   -2.2980 o         1 MOL     -0.593615
     23 C9         -1.2900    5.5000   -1.3950 c3        1 MOL     -0.236054
     24 H8         -2.0730    3.6100    0.1840 hn        1 MOL      0.234277
     25 H9         -2.7400    6.3620   -0.2610 h1        1 MOL      0.036682
     26 H10        -0.8530    4.5380   -1.6830 hc        1 MOL      0.059105
     27 H11        -1.4010    6.0900   -2.3040 hc        1 MOL      0.059105
     28 H12        -0.5990    6.0720   -0.7690 hc        1 MOL      0.059105
     29 N3         -4.2210    3.7230   -1.5820 n         1 MOL     -0.095465
     30 C10        -5.1100    3.2340   -2.6760 c3        1 MOL      0.050434
     31 C11        -6.3010    2.4230   -2.2600 c         1 MOL      0.296120
     32 O6         -7.2310    2.2660   -3.0660 o         1 MOL     -0.562812
     33 C12        -4.3140    2.4260   -3.6540 c3        1 MOL     -0.191732
     34 C13        -3.5800    1.1790   -3.2020 c         1 MOL      0.762040
     35 O7         -3.0490    0.4990   -4.0770 o         1 MOL     -0.706632
     36 O8         -3.6560    0.8340   -1.9990 o         1 MOL     -0.706632
     37 H13        -3.7170    3.0170   -1.0710 hn        1 MOL      0.180744
     38 H14        -5.4780    4.1330   -3.1800 h1        1 MOL      0.094827
     39 H15        -3.4870    3.0630   -3.9620 hc        1 MOL      0.034563
     40 H16        -4.9370    2.1780   -4.5110 hc        1 MOL      0.034563
     41 N4         -6.4250    1.8520   -1.0430 n         1 MOL      0.103188
     42 C14        -7.5790    1.0290   -0.6720 c3        1 MOL     -0.262802
     43 C15        -7.2860   -0.4800   -0.7710 c         1 MOL      0.737854
     44 O9         -8.0100   -1.2310   -0.1150 o         1 MOL     -0.655763
     45 H17        -5.7720    2.1680   -0.3460 hn        1 MOL     -0.044528
     46 H18        -8.4530    1.3140   -1.2480 h1        1 MOL      0.109482
     47 H19        -7.7890    1.2670    0.3690 h1        1 MOL      0.109482
     48 N5         -6.1840   -0.9800   -1.4290 n         1 MOL     -0.742920
     49 C16        -5.9610   -2.3800   -1.9140 c3        1 MOL      0.301519
     50 C17        -5.9290   -3.5220   -0.8850 c         1 MOL      0.314772
     51 O10        -5.6470   -4.6610   -1.3000 o         1 MOL     -0.516287
     52 C18        -4.8360   -2.4860   -3.0210 c3        1 MOL     -0.241088
     53 C19        -3.4540   -2.3280   -2.5120 c         1 MOL      0.769927
     54 N6         -2.4570   -2.5740   -3.3370 n         1 MOL     -0.645330
     55 O11        -3.1630   -2.0160   -1.3980 o         1 MOL     -0.801694
     56 H20        -5.6300   -0.2850   -1.8940 hn        1 MOL      0.369192
     57 H21        -6.8610   -2.6160   -2.4730 h1        1 MOL      0.049549
     58 H22        -4.9370   -1.7490   -3.8190 hc        1 MOL      0.071593
     59 H23        -4.9960   -3.4000   -3.5970 hc        1 MOL      0.071593
     60 H24        -2.7380   -2.7730   -4.2840 hn        1 MOL      0.315417
     61 H25        -1.5220   -2.2460   -3.1230 hn        1 MOL      0.315417
     62 N7         -6.0840   -3.2850    0.4000 n         1 MOL     -0.152479
     63 C20        -6.0810   -4.3200    1.3800 c3        1 MOL     -0.150079
     64 C21        -4.6480   -4.7200    1.9010 c         1 MOL      0.361679
     65 O12        -4.5920   -5.5420    2.8380 o         1 MOL     -0.550365
     66 H26        -6.0980   -2.3220    0.7270 hn        1 MOL      0.264596
     67 H27        -6.5830   -5.1890    0.9500 h1        1 MOL      0.109202
     68 H28        -6.7290   -4.0640    2.2210 h1        1 MOL      0.109202
     69 N8         -3.5610   -4.2810    1.2570 n         1 MOL     -0.173525
     70 C22        -2.1230   -4.6820    1.2940 c3        1 MOL     -0.184405
     71 C23        -1.0900   -3.5330    1.2960 c         1 MOL      0.535938
     72 O13        -1.2510   -2.5960    0.5210 o         1 MOL     -0.359323
     73 C24        -1.7910   -5.5790    0.0490 c3        1 MOL      0.725877
     74 C25        -2.3900   -6.9840    0.0380 c3        1 MOL     -0.616688
     75 O14        -2.1070   -4.9640   -1.1140 oh        1 MOL     -0.625873
     76 H29        -3.7960   -3.5940    0.5620 hn        1 MOL      0.199737
     77 H30        -1.9490   -5.2380    2.2120 h1        1 MOL      0.064212
     78 H31        -0.7170   -5.7730    0.0540 h1        1 MOL     -0.097027
     79 H32        -1.8680   -4.0330   -1.1040 ho        1 MOL      0.301099
     80 H33        -1.7840   -7.5760    0.7240 hc        1 MOL      0.152156
     81 H34        -3.4220   -6.8160    0.3490 hc        1 MOL      0.152156
     82 H35        -2.4410   -7.3060   -1.0030 hc        1 MOL      0.152156
     83 N9         -0.0270   -3.7030    1.9980 n         1 MOL     -0.614257
     84 C26         1.1220   -2.7960    1.9660 c3        1 MOL     -0.042474
     85 C27         1.8480   -2.8370    0.6060 c         1 MOL      0.651386
     86 O15         2.4340   -3.8300    0.2640 o         1 MOL     -0.577987
     87 C28         2.0700   -3.0500    3.1950 c3        1 MOL      0.075100
     88 C29         1.4140   -3.5320    4.4870 c3        1 MOL      0.318252
     89 C30         2.8470   -1.7580    3.5130 c3        1 MOL     -0.128109
     90 C31         2.4430   -3.8270    5.6040 c3        1 MOL     -0.407187
     91 H36         0.0730   -4.6680    2.2740 hn        1 MOL      0.309607
     92 H37         0.7580   -1.7660    2.0700 h1        1 MOL      0.177542
     93 H38         2.8310   -3.7830    2.9420 hc        1 MOL     -0.010147
     94 H39         0.8650   -4.4570    4.3520 hc        1 MOL     -0.063554
     95 H40         0.6790   -2.8110    4.8300 hc        1 MOL     -0.063554
     96 H41         2.2350   -0.9410    3.9020 hc        1 MOL      0.018117
     97 H42         3.6990   -1.8560    4.1930 hc        1 MOL      0.018117
     98 H43         3.3310   -1.4500    2.5840 hc        1 MOL      0.018117
     99 H44         1.8770   -4.4150    6.3310 hc        1 MOL      0.088272
    100 H45         3.2950   -4.3540    5.1780 hc        1 MOL      0.088272
    101 H46         2.7050   -2.8370    5.9730 hc        1 MOL      0.088272
    102 N10         1.7700   -1.7280   -0.1220 n         1 MOL     -0.490024
    103 C32         2.5990   -1.4860   -1.2880 c3        1 MOL      0.162960
    104 C33         4.0390   -1.1330   -0.8730 c         1 MOL      0.467125
    105 O16         4.2210   -0.6220    0.2190 o         1 MOL     -0.244137
    106 C34         1.8210   -0.4590   -2.1880 c3        1 MOL     -0.534432
    107 C35         0.3990   -0.9950   -2.6160 c         1 MOL      0.862656
    108 O17        -0.6450   -0.4440   -2.1470 o         1 MOL     -0.670489
    109 O18         0.3930   -1.8660   -3.5170 o         1 MOL     -0.670489
    110 H47         1.1440   -1.0050    0.1920 hn        1 MOL      0.158832
    111 H48         2.6650   -2.4320   -1.8180 h1        1 MOL      0.070533
    112 H49         2.4050   -0.1800   -3.0530 hc        1 MOL      0.135728
    113 H50         1.6560    0.4980   -1.6790 hc        1 MOL      0.135728
    114 N11         5.0270   -1.3980   -1.7820 n         1 MOL     -0.786467
    115 C36         6.4700   -1.1020   -1.5640 c3        1 MOL      0.676419
    116 C37         6.7250    0.3720   -1.1380 c         1 MOL      0.168476
    117 O19         7.3460    0.5260   -0.1030 o         1 MOL     -0.464460
    118 C38         7.3990   -1.7720   -2.6530 c3        1 MOL     -0.344991
    119 C39         8.9030   -1.7700   -2.2370 ca        1 MOL      0.052026
    120 C40         9.8040   -0.9170   -2.8440 ca        1 MOL     -0.094095
    121 C41         9.3340   -2.5860   -1.1440 ca        1 MOL     -0.094095
    122 C42        11.1210   -0.8160   -2.3940 ca        1 MOL     -0.153442
    123 C43        10.6450   -2.6310   -0.7480 ca        1 MOL     -0.153442
    124 C44        11.5170   -1.6750   -1.3050 ca        1 MOL     -0.103950
    125 H51         4.7580   -1.8570   -2.6330 hn        1 MOL      0.340837
    126 H52         6.6500   -1.6240   -0.6190 h1        1 MOL     -0.027585
    127 H53         7.3330   -1.1100   -3.5240 hc        1 MOL      0.098482
    128 H54         7.0000   -2.7590   -2.8840 hc        1 MOL      0.098482
    129 H55         9.5510   -0.3320   -3.7200 ha        1 MOL      0.104130
    130 H56         8.6590   -3.2590   -0.6210 ha        1 MOL      0.104130
    131 H57        11.8190   -0.1020   -2.7920 ha        1 MOL      0.124683
    132 H58        10.9720   -3.2790    0.0600 ha        1 MOL      0.124683
    133 H59        12.4740   -1.4780   -0.8560 ha        1 MOL      0.102415
    134 N12         6.1810    1.4150   -1.8640 n         1 MOL     -0.023312
    135 C45         6.2250    2.8000   -1.4140 c3        1 MOL      0.124371
    136 C46         5.5610    3.0190   -0.0610 c         1 MOL      0.244867
    137 O20         5.9400    3.8360    0.7270 o         1 MOL     -0.476999
    138 C47         5.6840    3.6400   -2.5840 c3        1 MOL     -0.027191
    139 C48         5.9100    2.7560   -3.7860 c3        1 MOL      0.107220
    140 C49         5.6680    1.3680   -3.2420 c3        1 MOL     -0.312363
    141 H60         7.2800    3.0750   -1.3290 h1        1 MOL      0.035898
    142 H61         4.6300    3.7100   -2.3480 hc        1 MOL      0.015003
    143 H62         6.2120    4.5780   -2.7450 hc        1 MOL      0.015003
    144 H63         5.2690    3.0280   -4.6350 hc        1 MOL      0.004268
    145 H64         6.9520    2.9140   -4.0600 hc        1 MOL      0.004268
    146 H65         4.5840    1.2510   -3.2000 h1        1 MOL      0.099458
    147 H66         6.1950    0.6480   -3.8750 h1        1 MOL      0.099458
    148 N13         4.5390    2.2040    0.3000 n         1 MOL     -0.070163
    149 C50         3.9050    2.3670    1.6440 c3        1 MOL     -0.108312
    150 C51         4.7020    1.7050    2.7990 c         1 MOL      0.423006
    151 O21         4.8090    2.2150    3.9320 o         1 MOL     -0.555202
    152 C52         2.5400    1.7700    1.6380 c3        1 MOL      0.038288
    153 C53         1.5380    2.3910    0.6200 c3        1 MOL     -0.015566
    154 C54         0.2440    1.6260    0.5260 c         1 MOL      0.679759
    155 O22        -0.7590    2.0280   -0.1480 o         1 MOL     -0.761848
    156 O23         0.1950    0.5110    1.0430 o         1 MOL     -0.761848
    157 H67         4.1740    1.4600   -0.2710 hn        1 MOL      0.181281
    158 H68         3.7300    3.3960    1.9610 h1        1 MOL      0.103759
    159 H69         2.0710    1.9680    2.6000 hc        1 MOL      0.007632
    160 H70         2.6720    0.6940    1.5950 hc        1 MOL      0.007632
    161 H71         2.0470    2.2470   -0.3320 hc        1 MOL      0.007240
    162 H72         1.3910    3.4380    0.8490 hc        1 MOL      0.007240
    163 N14         5.3440    0.5320    2.5120 n         1 MOL     -0.001523
    164 C55         6.3240   -0.0750    3.4820 c3        1 MOL     -0.241251
    165 H73         6.1310   -1.1450    3.5710 h1        1 MOL      0.088977
    166 H74         7.3400    0.0810    3.1190 h1        1 MOL      0.088977
    167 H75         6.2090    0.3970    4.4580 h1        1 MOL      0.088977
    168 H76         5.0310    0.0890    1.6560 hn        1 MOL      0.012872
    169 Ca1        -2.1070   -0.0460   -0.0830 Ca        1 MOL      1.709423
    170 O24        -1.6580   -0.1130    3.1600 oh        1 MOL     -0.853026
    171 H77        -1.9310    0.6090    3.7230 ho        1 MOL      0.413912
    172 H78        -0.7340    0.0500    3.0010 ho        1 MOL      0.413912
    173 O25        -3.6660   -1.3400    1.7800 oh        1 MOL     -0.853026
    174 H79        -3.1620   -1.0170    2.5230 ho        1 MOL      0.413912
    175 H80        -4.4640   -1.6990    2.1730 ho        1 MOL      0.413912
@<TRIPOS>BOND
     1    1    2 1   
     2    1    4 1   
     3    1    5 1   
     4    1    6 1   
     5    2    3 2   
     6    2    7 1   
     7    7    8 1   
     8    7   15 1   
     9    8    9 1   
    10    8   11 1   
    11    8   16 1   
    12    9   10 2   
    13    9   19 1   
    14   11   12 1   
    15   11   17 1   
    16   11   18 1   
    17   12   13 1   
    18   12   14 1   
    19   19   20 1   
    20   19   24 1   
    21   20   21 1   
    22   20   23 1   
    23   20   25 1   
    24   21   22 2   
    25   21   29 1   
    26   23   26 1   
    27   23   27 1   
    28   23   28 1   
    29   29   30 1   
    30   29   37 1   
    31   30   31 1   
    32   30   33 1   
    33   30   38 1   
    34   31   32 2   
    35   31   41 1   
    36   33   34 1   
    37   33   39 1   
    38   33   40 1   
    39   34   35 1   
    40   34   36 1   
    41   41   42 1   
    42   41   45 1   
    43   42   43 1   
    44   42   46 1   
    45   42   47 1   
    46   43   44 2   
    47   43   48 1   
    48   48   49 1   
    49   48   56 1   
    50   49   50 1   
    51   49   52 1   
    52   49   57 1   
    53   50   51 2   
    54   50   62 1   
    55   52   53 1   
    56   52   58 1   
    57   52   59 1   
    58   53   54 1   
    59   53   55 2   
    60   54   60 1   
    61   54   61 1   
    62   62   63 1   
    63   62   66 1   
    64   63   64 1   
    65   63   67 1   
    66   63   68 1   
    67   64   65 2   
    68   64   69 1   
    69   69   70 1   
    70   69   76 1   
    71   70   71 1   
    72   70   73 1   
    73   70   77 1   
    74   71   72 2   
    75   71   83 1   
    76   73   74 1   
    77   73   75 1   
    78   73   78 1   
    79   74   80 1   
    80   74   81 1   
    81   74   82 1   
    82   75   79 1   
    83   83   84 1   
    84   83   91 1   
    85   84   85 1   
    86   84   87 1   
    87   84   92 1   
    88   85   86 2   
    89   85  102 1   
    90   87   88 1   
    91   87   89 1   
    92   87   93 1   
    93   88   90 1   
    94   88   94 1   
    95   88   95 1   
    96   89   96 1   
    97   89   97 1   
    98   89   98 1   
    99   90   99 1   
   100   90  100 1   
   101   90  101 1   
   102  102  103 1   
   103  102  110 1   
   104  103  104 1   
   105  103  106 1   
   106  103  111 1   
   107  104  105 2   
   108  104  114 1   
   109  106  107 1   
   110  106  112 1   
   111  106  113 1   
   112  107  108 1   
   113  107  109 1   
   114  114  115 1   
   115  114  125 1   
   116  115  116 1   
   117  115  118 1   
   118  115  126 1   
   119  116  117 2   
   120  116  134 1   
   121  118  119 1   
   122  118  127 1   
   123  118  128 1   
   124  119  120 ar  
   125  119  121 ar  
   126  120  122 ar  
   127  120  129 1   
   128  121  123 ar  
   129  121  130 1   
   130  122  124 ar  
   131  122  131 1   
   132  123  124 ar  
   133  123  132 1   
   134  124  133 1   
   135  134  135 1   
   136  134  140 1   
   137  135  136 1   
   138  135  138 1   
   139  135  141 1   
   140  136  137 2   
   141  136  148 1   
   142  138  139 1   
   143  138  142 1   
   144  138  143 1   
   145  139  140 1   
   146  139  144 1   
   147  139  145 1   
   148  140  146 1   
   149  140  147 1   
   150  148  149 1   
   151  148  157 1   
   152  149  150 1   
   153  149  152 1   
   154  149  158 1   
   155  150  151 2   
   156  150  163 1   
   157  152  153 1   
   158  152  159 1   
   159  152  160 1   
   160  153  154 1   
   161  153  161 1   
   162  153  162 1   
   163  154  155 1   
   164  154  156 1   
   165  163  164 1   
   166  163  168 1   
   167  164  165 1   
   168  164  166 1   
   169  164  167 1   
   170  170  171 1   
   171  170  172 1   
   172  173  174 1   
   173  173  175 1   
@<TRIPOS>SUBSTRUCTURE
     1 MOL         1 TEMP              0 ****  ****    0 ROOT
