@<TRIPOS>MOLECULE
MOL
  175   173     1     0     0
SMALL
resp


@<TRIPOS>ATOM
      1 C1          0.4800    3.4430    5.6570 c3        1 MOL     -0.475944
      2 C2         -0.0230    3.5460    4.2190 c         1 MOL      0.686804
      3 O1          0.7120    3.6440    3.1940 o         1 MOL     -0.555281
      4 H1          0.9750    2.4820    5.8000 hc        1 MOL      0.122219
      5 H2          1.1880    4.2490    5.8540 hc        1 MOL      0.122219
      6 H3         -0.3630    3.5220    6.3430 hc        1 MOL      0.122219
      7 N1         -1.3350    3.6000    4.0380 n         1 MOL     -0.555416
      8 C3         -1.9810    3.4260    2.6790 c3        1 MOL      0.070867
      9 C4         -2.0250    4.6850    1.7700 c         1 MOL      0.604504
     10 O2         -1.9350    5.8140    2.2520 o         1 MOL     -0.575044
     11 C5         -3.3610    2.9410    2.9710 c3        1 MOL     -0.355642
     12 C6         -4.1160    2.4540    1.7320 c         1 MOL      0.702230
     13 O3         -5.3440    2.5000    1.5940 o         1 MOL     -0.628534
     14 O4         -3.3830    2.0360    0.8440 o         1 MOL     -0.628534
     15 H4         -1.9630    3.6530    4.8200 hn        1 MOL      0.314436
     16 H5         -1.4270    2.6370    2.1680 h1        1 MOL      0.137019
     17 H6         -3.9610    3.7620    3.3600 hc        1 MOL      0.071374
     18 H7         -3.3050    2.1820    3.7520 hc        1 MOL      0.071374
     19 N2         -2.1820    4.5220    0.4660 n         1 MOL     -0.495934
     20 C7         -2.4570    5.6090   -0.4310 c3        1 MOL      0.476024
     21 C8         -3.5640    5.1820   -1.4360 c         1 MOL      0.341274
     22 O5         -3.9690    6.0260   -2.2530 o         1 MOL     -0.575358
     23 C9         -1.2310    6.0980   -1.1830 c3        1 MOL     -0.411518
     24 H8         -2.2160    3.5480    0.2020 hn        1 MOL      0.227517
     25 H9         -2.8480    6.4250    0.1770 h1        1 MOL     -0.019363
     26 H10        -0.3480    5.5650   -0.8190 hc        1 MOL      0.095254
     27 H11        -1.2480    6.0050   -2.2700 hc        1 MOL      0.095254
     28 H12        -1.0400    7.1300   -0.8920 hc        1 MOL      0.095254
     29 N3         -4.0960    3.9530   -1.4050 n         1 MOL     -0.308150
     30 C10        -4.8890    3.4550   -2.5930 c3        1 MOL      0.156985
     31 C11        -6.2100    2.7110   -2.1700 c         1 MOL      0.336434
     32 O6         -7.1580    2.6290   -2.9220 o         1 MOL     -0.558368
     33 C12        -3.8690    2.6160   -3.4590 c3        1 MOL     -0.110990
     34 C13        -3.1040    1.5550   -2.6670 c         1 MOL      0.711330
     35 O7         -1.9120    1.4070   -2.6860 o         1 MOL     -0.701524
     36 O8         -3.8100    0.8330   -1.9190 o         1 MOL     -0.701524
     37 H13        -3.8370    3.2470   -0.7360 hn        1 MOL      0.202588
     38 H14        -5.2720    4.2340   -3.2490 h1        1 MOL      0.065719
     39 H15        -3.1710    3.2650   -3.9910 hc        1 MOL      0.016907
     40 H16        -4.4230    2.1160   -4.2540 hc        1 MOL      0.016907
     41 N4         -6.3070    2.2660   -0.9050 n         1 MOL      0.018776
     42 C14        -7.4780    1.5420   -0.4030 c3        1 MOL     -0.382776
     43 C15        -7.3950    0.0320   -0.7870 c         1 MOL      0.636621
     44 O9         -8.3090   -0.7290   -0.4040 o         1 MOL     -0.633903
     45 H17        -5.4990    2.3080   -0.3050 hn        1 MOL     -0.023112
     46 H18        -8.3610    1.9930   -0.8700 h1        1 MOL      0.157940
     47 H19        -7.4100    1.6390    0.6780 h1        1 MOL      0.157940
     48 N5         -6.3220   -0.4760   -1.4760 n         1 MOL     -0.362724
     49 C16        -6.3300   -1.8780   -2.0270 c3        1 MOL      0.016934
     50 C17        -6.2550   -3.0150   -1.0050 c         1 MOL      0.511040
     51 O10        -6.3880   -4.1820   -1.3490 o         1 MOL     -0.553124
     52 C18        -5.2290   -1.9720   -3.1390 c3        1 MOL     -0.214128
     53 C19        -3.7400   -2.1490   -2.6250 c         1 MOL      0.613134
     54 N6         -2.8370   -2.4690   -3.4630 n         1 MOL     -0.617704
     55 O11        -3.4320   -1.8940   -1.4620 o         1 MOL     -0.552057
     56 H20        -5.6890    0.2010   -1.8870 hn        1 MOL      0.256822
     57 H21        -7.3220   -1.9680   -2.4670 h1        1 MOL      0.087922
     58 H22        -5.2810   -1.0830   -3.7650 hc        1 MOL      0.058272
     59 H23        -5.4560   -2.7990   -3.8220 hc        1 MOL      0.058272
     60 H24        -3.0980   -2.7280   -4.4140 hn        1 MOL      0.317548
     61 H25        -1.9040   -2.2090   -3.1700 hn        1 MOL      0.317548
     62 N7         -6.2240   -2.7370    0.2780 n         1 MOL     -0.262041
     63 C20        -6.2510   -3.8240    1.3690 c3        1 MOL     -0.114178
     64 C21        -4.9430   -4.6980    1.5120 c         1 MOL      0.498782
     65 O12        -4.8630   -5.6910    2.2040 o         1 MOL     -0.592521
     66 H26        -6.0680   -1.7710    0.5370 hn        1 MOL      0.253849
     67 H27        -7.0630   -4.5380    1.3010 h1        1 MOL      0.086246
     68 H28        -6.5300   -3.3850    2.3240 h1        1 MOL      0.086246
     69 N8         -3.8560   -4.2110    0.9860 n         1 MOL     -0.190199
     70 C22        -2.4430   -4.6440    1.1590 c3        1 MOL      0.003870
     71 C23        -1.4680   -3.5350    1.3270 c         1 MOL      0.355120
     72 O13        -1.5960   -2.4800    0.6870 o         1 MOL     -0.392645
     73 C24        -2.0340   -5.6120   -0.0070 c3        1 MOL      0.581181
     74 C25        -2.5300   -6.9790    0.1140 c3        1 MOL     -0.537383
     75 O14        -2.4220   -5.1110   -1.2430 oh        1 MOL     -0.585017
     76 H29        -3.9600   -3.3690    0.4320 hn        1 MOL      0.102530
     77 H30        -2.2970   -5.2520    2.0600 h1        1 MOL      0.045063
     78 H31        -0.9510   -5.6760    0.0200 h1        1 MOL     -0.064520
     79 H32        -2.0640   -4.2300   -1.2100 ho        1 MOL      0.313979
     80 H33        -2.1910   -7.4790   -0.7900 hc        1 MOL      0.128631
     81 H34        -2.0610   -7.4530    0.9850 hc        1 MOL      0.128631
     82 H35        -3.6240   -7.0200    0.0550 hc        1 MOL      0.128631
     83 N9         -0.4450   -3.7630    2.2060 n         1 MOL     -0.517788
     84 C26         0.8630   -3.0250    2.0170 c3        1 MOL     -0.002171
     85 C27         1.4320   -3.2390    0.6070 c         1 MOL      0.474375
     86 O15         1.7040   -4.3700    0.2220 o         1 MOL     -0.563618
     87 C28         1.7670   -3.2290    3.2380 c3        1 MOL      0.090252
     88 C29         1.1640   -2.6020    4.5000 c3        1 MOL      0.202843
     89 C30         3.1250   -2.5200    2.8940 c3        1 MOL     -0.285802
     90 C31         2.0750   -2.6620    5.7410 c3        1 MOL     -0.212973
     91 H36        -0.3950   -4.6640    2.6540 hn        1 MOL      0.314124
     92 H37         0.5290   -1.9890    1.9980 h1        1 MOL      0.017994
     93 H38         1.8620   -4.3020    3.4030 hc        1 MOL     -0.004278
     94 H39         0.2480   -3.1600    4.6800 hc        1 MOL     -0.046903
     95 H40         0.8400   -1.5970    4.2290 hc        1 MOL     -0.046903
     96 H41         3.9380   -2.5030    3.6230 hc        1 MOL      0.072008
     97 H42         3.6260   -2.9770    2.0370 hc        1 MOL      0.072008
     98 H43         2.8310   -1.4940    2.6860 hc        1 MOL      0.072008
     99 H44         2.0090   -3.6820    6.1180 hc        1 MOL      0.040332
    100 H45         3.1020   -2.3350    5.5850 hc        1 MOL      0.040332
    101 H46         1.5340   -2.0100    6.4230 hc        1 MOL      0.040332
    102 N10         1.7330   -2.1610   -0.1280 n         1 MOL     -0.214518
    103 C32         2.5710   -2.1070   -1.2700 c3        1 MOL     -0.007377
    104 C33         4.0130   -1.6430   -0.9520 c         1 MOL      0.522831
    105 O16         4.2740   -1.0810    0.1370 o         1 MOL     -0.394136
    106 C34         1.8360   -1.1140   -2.2690 c3        1 MOL     -0.409184
    107 C35         0.3950   -1.4260   -2.6440 c         1 MOL      0.808477
    108 O17        -0.5610   -1.2100   -1.8890 o         1 MOL     -0.698320
    109 O18         0.1440   -1.8320   -3.8100 o         1 MOL     -0.698320
    110 H47         1.3080   -1.3130    0.2110 hn        1 MOL      0.313598
    111 H48         2.6820   -3.1220   -1.6620 h1        1 MOL      0.074376
    112 H49         2.4810   -0.9320   -3.1170 hc        1 MOL      0.117157
    113 H50         1.9850   -0.1810   -1.7300 hc        1 MOL      0.117157
    114 N11         5.0220   -1.8410   -1.8110 n         1 MOL     -0.673805
    115 C36         6.4070   -1.3280   -1.4800 c3        1 MOL      0.324901
    116 C37         6.5060    0.1840   -1.1240 c         1 MOL      0.374207
    117 O19         7.0020    0.4220   -0.0550 o         1 MOL     -0.490389
    118 C38         7.4230   -1.8700   -2.5100 c3        1 MOL     -0.177709
    119 C39         8.8720   -1.5830   -2.2210 ca        1 MOL      0.053289
    120 C40         9.5050   -0.4990   -2.8540 ca        1 MOL     -0.133916
    121 C41         9.6240   -2.4040   -1.3580 ca        1 MOL     -0.133916
    122 C42        10.9100   -0.1850   -2.5630 ca        1 MOL     -0.155688
    123 C43        11.0080   -2.2340   -1.2280 ca        1 MOL     -0.155688
    124 C44        11.6230   -1.0230   -1.7080 ca        1 MOL     -0.048365
    125 H51         4.8080   -2.2750   -2.6940 hn        1 MOL      0.347667
    126 H52         6.7100   -1.8330   -0.5730 h1        1 MOL      0.066188
    127 H53         7.2120   -1.4750   -3.5020 hc        1 MOL      0.062458
    128 H54         7.3230   -2.9410   -2.6500 hc        1 MOL      0.062458
    129 H55         8.9390    0.1560   -3.5020 ha        1 MOL      0.115131
    130 H56         9.0690   -3.1900   -0.8850 ha        1 MOL      0.115131
    131 H57        11.3730    0.6350   -3.1010 ha        1 MOL      0.119383
    132 H58        11.6310   -2.9720   -0.7430 ha        1 MOL      0.119383
    133 H59        12.6820   -0.8440   -1.5950 ha        1 MOL      0.086878
    134 N12         5.9800    1.2370   -1.8960 n         1 MOL     -0.126022
    135 C45         6.0990    2.6640   -1.4490 c3        1 MOL      0.070031
    136 C46         5.5730    2.9130   -0.0070 c         1 MOL      0.261047
    137 O20         5.8980    3.9750    0.6150 o         1 MOL     -0.505296
    138 C47         5.2470    3.4290   -2.4600 c3        1 MOL     -0.247035
    139 C48         5.4700    2.6450   -3.7470 c3        1 MOL      0.252083
    140 C49         5.4100    1.1670   -3.2530 c3        1 MOL     -0.246587
    141 H60         7.1450    2.9600   -1.5380 h1        1 MOL      0.069634
    142 H61         4.1780    3.3670   -2.2810 hc        1 MOL      0.094998
    143 H62         5.6060    4.4480   -2.6020 hc        1 MOL      0.094998
    144 H63         4.7650    2.8350   -4.5610 hc        1 MOL     -0.033124
    145 H64         6.4020    2.9500   -4.2230 hc        1 MOL     -0.033124
    146 H65         4.3600    0.9090   -3.3200 h1        1 MOL      0.080182
    147 H66         6.0600    0.5470   -3.8720 h1        1 MOL      0.080182
    148 N13         4.7420    1.9800    0.5040 n         1 MOL      0.042012
    149 C50         4.1260    2.0810    1.8010 c3        1 MOL     -0.164899
    150 C51         4.8930    1.3310    2.9350 c         1 MOL      0.430890
    151 O21         4.8870    1.7730    4.0750 o         1 MOL     -0.558143
    152 C52         2.7360    1.5290    1.7290 c3        1 MOL     -0.019377
    153 C53         1.7570    2.2150    0.7510 c3        1 MOL     -0.069186
    154 C54         0.5190    1.4560    0.5560 c         1 MOL      0.425847
    155 O22        -0.3250    1.9060   -0.2480 o         1 MOL     -0.642367
    156 O23         0.3320    0.3000    0.9450 o         1 MOL     -0.642367
    157 H67         4.4880    1.1130    0.0530 hn        1 MOL      0.074920
    158 H68         4.0700    3.1380    2.0980 h1        1 MOL      0.123688
    159 H69         2.2100    1.5580    2.6770 hc        1 MOL      0.036839
    160 H70         2.8170    0.4750    1.4710 hc        1 MOL      0.036839
    161 H71         2.1850    2.1610   -0.2420 hc        1 MOL      0.071625
    162 H72         1.6730    3.3000    0.8310 hc        1 MOL      0.071625
    163 N14         5.5940    0.2860    2.5630 n         1 MOL     -0.003459
    164 C55         6.5530   -0.4470    3.3930 c3        1 MOL     -0.210870
    165 H73         6.5600   -1.4970    3.0990 h1        1 MOL      0.077479
    166 H74         7.5490   -0.0260    3.2580 h1        1 MOL      0.077479
    167 H75         6.2630   -0.3670    4.4410 h1        1 MOL      0.077479
    168 H76         5.4510   -0.0820    1.6260 hn        1 MOL      0.060429
    169 Ca1        -2.0770    0.0950   -0.3240 Ca        1 MOL      1.716086
    170 O24        -1.5390   -0.2360    2.8490 oh        1 MOL     -0.826089
    171 H77        -1.4650    0.0530    3.7600 ho        1 MOL      0.403262
    172 H78        -0.6340   -0.2660    2.5270 ho        1 MOL      0.403262
    173 O25        -3.8870   -0.9390    1.3710 oh        1 MOL     -0.826089
    174 H79        -3.2460   -0.8360    2.0680 ho        1 MOL      0.403262
    175 H80        -4.7230   -1.0390    1.8270 ho        1 MOL      0.403262
@<TRIPOS>BOND
     1    1    2 1   
     2    1    4 1   
     3    1    5 1   
     4    1    6 1   
     5    2    3 2   
     6    2    7 1   
     7    7    8 1   
     8    7   15 1   
     9    8    9 1   
    10    8   11 1   
    11    8   16 1   
    12    9   10 2   
    13    9   19 1   
    14   11   12 1   
    15   11   17 1   
    16   11   18 1   
    17   12   13 1   
    18   12   14 1   
    19   19   20 1   
    20   19   24 1   
    21   20   21 1   
    22   20   23 1   
    23   20   25 1   
    24   21   22 2   
    25   21   29 1   
    26   23   26 1   
    27   23   27 1   
    28   23   28 1   
    29   29   30 1   
    30   29   37 1   
    31   30   31 1   
    32   30   33 1   
    33   30   38 1   
    34   31   32 2   
    35   31   41 1   
    36   33   34 1   
    37   33   39 1   
    38   33   40 1   
    39   34   35 1   
    40   34   36 1   
    41   41   42 1   
    42   41   45 1   
    43   42   43 1   
    44   42   46 1   
    45   42   47 1   
    46   43   44 2   
    47   43   48 1   
    48   48   49 1   
    49   48   56 1   
    50   49   50 1   
    51   49   52 1   
    52   49   57 1   
    53   50   51 2   
    54   50   62 1   
    55   52   53 1   
    56   52   58 1   
    57   52   59 1   
    58   53   54 1   
    59   53   55 2   
    60   54   60 1   
    61   54   61 1   
    62   62   63 1   
    63   62   66 1   
    64   63   64 1   
    65   63   67 1   
    66   63   68 1   
    67   64   65 2   
    68   64   69 1   
    69   69   70 1   
    70   69   76 1   
    71   70   71 1   
    72   70   73 1   
    73   70   77 1   
    74   71   72 2   
    75   71   83 1   
    76   73   74 1   
    77   73   75 1   
    78   73   78 1   
    79   74   80 1   
    80   74   81 1   
    81   74   82 1   
    82   75   79 1   
    83   83   84 1   
    84   83   91 1   
    85   84   85 1   
    86   84   87 1   
    87   84   92 1   
    88   85   86 2   
    89   85  102 1   
    90   87   88 1   
    91   87   89 1   
    92   87   93 1   
    93   88   90 1   
    94   88   94 1   
    95   88   95 1   
    96   89   96 1   
    97   89   97 1   
    98   89   98 1   
    99   90   99 1   
   100   90  100 1   
   101   90  101 1   
   102  102  103 1   
   103  102  110 1   
   104  103  104 1   
   105  103  106 1   
   106  103  111 1   
   107  104  105 2   
   108  104  114 1   
   109  106  107 1   
   110  106  112 1   
   111  106  113 1   
   112  107  108 1   
   113  107  109 1   
   114  114  115 1   
   115  114  125 1   
   116  115  116 1   
   117  115  118 1   
   118  115  126 1   
   119  116  117 2   
   120  116  134 1   
   121  118  119 1   
   122  118  127 1   
   123  118  128 1   
   124  119  120 ar  
   125  119  121 ar  
   126  120  122 ar  
   127  120  129 1   
   128  121  123 ar  
   129  121  130 1   
   130  122  124 ar  
   131  122  131 1   
   132  123  124 ar  
   133  123  132 1   
   134  124  133 1   
   135  134  135 1   
   136  134  140 1   
   137  135  136 1   
   138  135  138 1   
   139  135  141 1   
   140  136  137 2   
   141  136  148 1   
   142  138  139 1   
   143  138  142 1   
   144  138  143 1   
   145  139  140 1   
   146  139  144 1   
   147  139  145 1   
   148  140  146 1   
   149  140  147 1   
   150  148  149 1   
   151  148  157 1   
   152  149  150 1   
   153  149  152 1   
   154  149  158 1   
   155  150  151 2   
   156  150  163 1   
   157  152  153 1   
   158  152  159 1   
   159  152  160 1   
   160  153  154 1   
   161  153  161 1   
   162  153  162 1   
   163  154  155 1   
   164  154  156 1   
   165  163  164 1   
   166  163  168 1   
   167  164  165 1   
   168  164  166 1   
   169  164  167 1   
   170  170  171 1   
   171  170  172 1   
   172  173  174 1   
   173  173  175 1   
@<TRIPOS>SUBSTRUCTURE
     1 MOL         1 TEMP              0 ****  ****    0 ROOT
