@<TRIPOS>MOLECULE
MOL
  179   176     1     0     0
SMALL
resp


@<TRIPOS>ATOM
      1 C1          0.7780    4.3790    6.4690 c3        1 MOL     -0.355178
      2 C2          0.8200    3.4960    5.1530 c         1 MOL      0.723969
      3 O1          1.9190    3.3790    4.5840 o         1 MOL     -0.556684
      4 H1          1.5020    5.1900    6.3850 hc        1 MOL      0.095982
      5 H2         -0.2210    4.7960    6.5970 hc        1 MOL      0.095982
      6 H3          1.0260    3.7580    7.3310 hc        1 MOL      0.095982
      7 N1         -0.3010    2.9790    4.5810 n         1 MOL     -0.659581
      8 C3         -0.4180    2.5980    3.1430 c3        1 MOL     -0.090936
      9 C4         -0.2160    3.7680    2.1740 c         1 MOL      0.725959
     10 O2         -0.5240    4.8880    2.5200 o         1 MOL     -0.535276
     11 C5         -1.8950    2.0470    2.9100 c3        1 MOL     -0.093141
     12 C6         -2.0630    1.2500    1.6060 c         1 MOL      0.672841
     13 O3         -1.1330    1.1770    0.8300 o         1 MOL     -0.755945
     14 O4         -3.1910    0.7890    1.2940 o         1 MOL     -0.755945
     15 H4         -1.2280    3.0830    4.9720 hn        1 MOL      0.337205
     16 H5          0.3300    1.8350    2.9390 h1        1 MOL      0.074223
     17 H6         -2.6230    2.8500    3.0200 hc        1 MOL      0.062420
     18 H7         -2.0980    1.3390    3.7130 hc        1 MOL      0.062420
     19 N2          0.1330    3.5290    0.8720 n         1 MOL     -0.471518
     20 C7          0.5030    4.6150   -0.0000 c3        1 MOL     -0.082734
     21 C8         -0.7470    5.2240   -0.6560 c         1 MOL      0.455328
     22 O5         -0.8620    6.4210   -0.8450 o         1 MOL     -0.548143
     23 C9          1.4560    4.1920   -1.0780 c3        1 MOL      0.157207
     24 C10         1.9780    5.4320   -1.9250 c3        1 MOL     -0.208307
     25 C11         3.2950    5.0540   -2.7000 c3        1 MOL      0.089163
     26 C12         3.6320    6.3790   -3.3240 c3        1 MOL     -0.022844
     27 N3          4.8150    6.1290   -4.2150 n4        1 MOL     -0.270211
     28 H8          0.3300    2.5840    0.5660 hn        1 MOL      0.273575
     29 H9          1.0160    5.3880    0.5640 h1        1 MOL      0.115394
     30 H10         1.0950    3.4040   -1.7310 hc        1 MOL     -0.014577
     31 H11         2.3260    3.8070   -0.5500 hc        1 MOL     -0.014577
     32 H12         2.2620    6.2870   -1.3180 hc        1 MOL      0.069572
     33 H13         1.1910    5.8310   -2.5710 hc        1 MOL      0.069572
     34 H14         3.1540    4.2690   -3.4510 hc        1 MOL      0.012034
     35 H15         4.0350    4.6820   -1.9890 hc        1 MOL      0.012034
     36 H16         3.9460    7.0820   -2.5470 hx        1 MOL      0.105762
     37 H17         2.7370    6.7470   -3.8200 hx        1 MOL      0.105762
     38 H18         5.1980    6.9910   -4.5840 hn        1 MOL      0.297402
     39 H19         5.5200    5.4870   -3.8710 hn        1 MOL      0.297402
     40 H20         4.4700    5.5960   -5.0010 hn        1 MOL      0.297402
     41 N4         -1.6870    4.3180   -1.0540 n         1 MOL     -0.257907
     42 C13        -3.0480    4.7130   -1.6310 c3        1 MOL      0.115577
     43 C14        -4.2210    4.4430   -0.6940 c         1 MOL      0.373345
     44 O6         -5.3030    4.9860   -1.0330 o         1 MOL     -0.509161
     45 C15        -3.2630    3.9050   -2.9220 c3        1 MOL     -0.406398
     46 C16        -2.9460    2.4100   -2.9180 c         1 MOL      0.794592
     47 O7         -2.7460    1.7570   -1.8370 o         1 MOL     -0.720152
     48 O8         -2.7100    1.8210   -3.9910 o         1 MOL     -0.720152
     49 H21        -1.5150    3.3650   -0.7740 hn        1 MOL      0.206895
     50 H22        -3.0660    5.7740   -1.8910 h1        1 MOL      0.102791
     51 H23        -2.5340    4.3020   -3.6290 hc        1 MOL      0.114061
     52 H24        -4.2510    4.1240   -3.3210 hc        1 MOL      0.114061
     53 N5         -4.0370    3.7280    0.4430 n         1 MOL     -0.192815
     54 C17        -5.1520    3.3690    1.3370 c3        1 MOL      0.009937
     55 C18        -6.1820    2.4650    0.6870 c         1 MOL      0.456397
     56 O9         -7.3970    2.6370    0.8880 o         1 MOL     -0.559979
     57 H25        -3.0950    3.4290    0.6550 hn        1 MOL      0.123678
     58 H26        -5.5930    4.2450    1.8080 h1        1 MOL      0.050699
     59 H27        -4.7000    2.7710    2.1210 h1        1 MOL      0.050699
     60 N6         -5.7000    1.5350   -0.1490 n         1 MOL     -0.112940
     61 C19        -6.4920    0.5060   -0.8580 c3        1 MOL     -0.189901
     62 C20        -6.6100   -0.8830   -0.2860 c         1 MOL      0.423435
     63 O10        -7.2660   -1.7390   -0.8340 o         1 MOL     -0.519794
     64 C21        -5.9900    0.3550   -2.3180 c3        1 MOL     -0.110198
     65 C22        -4.9420   -0.7080   -2.4820 c         1 MOL      0.576498
     66 N7         -4.7540   -1.3120   -3.6180 n         1 MOL     -0.683358
     67 O11        -4.1250   -0.9260   -1.5310 o         1 MOL     -0.508717
     68 H28        -4.7020    1.4910   -0.3210 hn        1 MOL      0.175268
     69 H29        -7.5160    0.8660   -0.9640 h1        1 MOL      0.150029
     70 H30        -5.6480    1.2760   -2.7900 hc        1 MOL      0.073241
     71 H31        -6.8730    0.0680   -2.9050 hc        1 MOL      0.073241
     72 H32        -5.2910   -1.1140   -4.4450 hn        1 MOL      0.333206
     73 H33        -3.8480   -1.7200   -3.8100 hn        1 MOL      0.333206
     74 N8         -6.0480   -1.0290    0.8900 n         1 MOL     -0.053863
     75 C23        -6.4700   -2.1040    1.8120 c3        1 MOL     -0.287235
     76 C24        -5.4920   -3.1720    2.2030 c         1 MOL      0.585975
     77 O12        -5.7310   -3.9970    3.0530 o         1 MOL     -0.566432
     78 H34        -5.8400   -0.1290    1.3130 hn        1 MOL      0.197063
     79 H35        -7.3390   -2.6150    1.3830 h1        1 MOL      0.120752
     80 H36        -6.7540   -1.6540    2.7540 h1        1 MOL      0.120752
     81 N9         -4.2840   -3.0640    1.6240 n         1 MOL     -0.179251
     82 C25        -3.0450   -3.8210    2.0750 c3        1 MOL     -0.040470
     83 C26        -1.6880   -3.1300    1.7990 c         1 MOL      0.695276
     84 O13        -1.7310   -2.2130    0.9830 o         1 MOL     -0.559777
     85 C27        -3.0200   -5.1520    1.3720 c3        1 MOL     -0.181444
     86 C28        -2.9980   -5.1910   -0.0940 ca        1 MOL      0.111464
     87 C29        -1.7430   -5.6860   -0.6310 ca        1 MOL     -0.144808
     88 C30        -4.1320   -4.9550   -0.8780 ca        1 MOL     -0.144808
     89 C31        -1.7020   -5.8670   -2.0280 ca        1 MOL     -0.312056
     90 C32        -4.0400   -5.0570   -2.2920 ca        1 MOL     -0.312056
     91 C33        -2.8440   -5.5550   -2.9340 ca        1 MOL      0.338257
     92 O14        -2.8450   -5.6170   -4.3040 oh        1 MOL     -0.522289
     93 H37        -4.0870   -2.3050    0.9880 hn        1 MOL      0.072724
     94 H38        -3.0870   -4.1340    3.1170 h1        1 MOL      0.082076
     95 H39        -3.9780   -5.5920    1.6490 hc        1 MOL      0.060880
     96 H40        -2.2210   -5.7050    1.8730 hc        1 MOL      0.060880
     97 H41        -0.8610   -5.8210   -0.0250 ha        1 MOL      0.157605
     98 H42        -5.0920   -4.7400   -0.4400 ha        1 MOL      0.157605
     99 H43        -0.8270   -6.2100   -2.5640 ha        1 MOL      0.157566
    100 H44        -4.9160   -4.8000   -2.8760 ha        1 MOL      0.157566
    101 H45        -3.7550   -5.6230   -4.6020 ho        1 MOL      0.398312
    102 N10        -0.5780   -3.4500    2.3730 n         1 MOL     -0.499787
    103 C34         0.7170   -2.7340    2.0630 c3        1 MOL     -0.048402
    104 C35         1.7940   -3.7460    1.5990 c         1 MOL      0.480154
    105 O15         1.9880   -4.7950    2.1520 o         1 MOL     -0.524211
    106 C36         1.2580   -2.0130    3.4010 c3        1 MOL      0.075722
    107 C37         0.2690   -0.9650    3.9540 c3        1 MOL     -0.013327
    108 C38         2.5760   -1.2250    3.1160 c3        1 MOL     -0.047035
    109 C39        -0.8730   -1.4910    4.7860 c3        1 MOL     -0.338414
    110 H46        -0.5190   -4.1860    3.0680 hn        1 MOL      0.314778
    111 H47         0.5650   -1.9660    1.3040 h1        1 MOL      0.038457
    112 H48         1.6140   -2.6760    4.1820 hc        1 MOL      0.027126
    113 H49        -0.1670   -0.5040    3.0580 hc        1 MOL      0.099772
    114 H50         0.7730   -0.2130    4.5570 hc        1 MOL      0.099772
    115 H51         3.0230   -0.6890    3.9560 hc        1 MOL     -0.005722
    116 H52         3.4110   -1.8410    2.7850 hc        1 MOL     -0.005722
    117 H53         2.2560   -0.4760    2.3860 hc        1 MOL     -0.005722
    118 H54        -0.4220   -1.9630    5.6550 hc        1 MOL      0.069664
    119 H55        -1.5250   -0.6960    5.1320 hc        1 MOL      0.069664
    120 H56        -1.5550   -2.0960    4.1820 hc        1 MOL      0.069664
    121 N11         2.5230   -3.3400    0.5000 n         1 MOL     -0.279648
    122 C40         3.6530   -3.9830   -0.1610 c3        1 MOL      0.084665
    123 C41         4.9480   -3.1450    0.0830 c         1 MOL      0.349855
    124 O16         4.9310   -1.9960    0.6160 o         1 MOL     -0.340077
    125 C42         3.3680   -4.1580   -1.6450 c3        1 MOL      0.185194
    126 O17         2.2110   -4.8940   -1.9850 oh        1 MOL     -0.603103
    127 H57         2.1790   -2.5200    0.0340 hn        1 MOL      0.225746
    128 H58         3.8150   -4.9960    0.2040 h1        1 MOL      0.046978
    129 H59         4.2240   -4.6640   -2.0980 h1        1 MOL      0.011480
    130 H60         3.3000   -3.2020   -2.1580 h1        1 MOL      0.011480
    131 H61         2.4680   -5.8140   -1.8900 ho        1 MOL      0.400661
    132 N12         6.1030   -3.7770   -0.1420 n         1 MOL     -0.473986
    133 C43         7.3910   -3.2750    0.3240 c3        1 MOL      0.226479
    134 C44         7.7210   -1.8680   -0.2300 c         1 MOL      0.408857
    135 O18         8.1720   -1.0120    0.5310 o         1 MOL     -0.481044
    136 C45         8.4440   -4.2380   -0.2300 c3        1 MOL     -0.331638
    137 H62         6.0470   -4.7150   -0.5040 hn        1 MOL      0.311784
    138 H63         7.5320   -3.3290    1.4040 h1        1 MOL      0.077969
    139 H64         9.4450   -3.8420   -0.0440 hc        1 MOL      0.090059
    140 H65         8.3410   -5.2100    0.2310 hc        1 MOL      0.090059
    141 H66         8.1950   -4.4570   -1.2620 hc        1 MOL      0.090059
    142 N13         7.4050   -1.6160   -1.4780 n         1 MOL     -0.314126
    143 C46         7.6570   -0.2890   -2.0380 c3        1 MOL      0.091416
    144 C47         6.8790    0.7950   -1.2890 c         1 MOL      0.374022
    145 O19         7.3720    1.8570   -0.9750 o         1 MOL     -0.492261
    146 C48         7.2110   -0.3640   -3.4470 c3        1 MOL     -0.311276
    147 H67         6.9000   -2.2800   -2.0470 hn        1 MOL      0.216663
    148 H68         8.7320   -0.1440   -1.9350 h1        1 MOL      0.103999
    149 H69         7.9450   -0.9210   -4.0280 hc        1 MOL      0.090941
    150 H70         6.1950   -0.7190   -3.6450 hc        1 MOL      0.090941
    151 H71         7.3030    0.6300   -3.8820 hc        1 MOL      0.090941
    152 N14         5.5800    0.5760   -0.9640 n         1 MOL     -0.239738
    153 C49         4.7370    1.4660   -0.1970 c3        1 MOL     -0.067482
    154 C50         5.2100    1.5920    1.2570 c         1 MOL      0.444704
    155 O20         5.1390    2.6910    1.7800 o         1 MOL     -0.529062
    156 C51         3.2800    0.8260   -0.2220 c3        1 MOL      0.047378
    157 C52         2.9040    0.1400   -1.5870 c3        1 MOL     -0.171638
    158 C53         1.3840    0.0480   -1.4480 c         1 MOL      0.761715
    159 O21         0.8790   -0.8610   -0.7290 o         1 MOL     -0.701295
    160 O22         0.6030    0.7280   -2.1260 o         1 MOL     -0.701295
    161 H72         5.2180   -0.3620   -1.0500 hn        1 MOL      0.145319
    162 H73         4.7760    2.4790   -0.5880 h1        1 MOL      0.078441
    163 H74         2.6620    1.7020   -0.0170 hc        1 MOL      0.020450
    164 H75         3.1620    0.0380    0.5130 hc        1 MOL      0.020450
    165 H76         3.3400   -0.8410   -1.7610 hc        1 MOL      0.017815
    166 H77         3.1200    0.7310   -2.4830 hc        1 MOL      0.017815
    167 N15         5.7980    0.5090    1.7680 n         1 MOL     -0.011984
    168 C54         6.5610    0.6790    3.0080 c3        1 MOL     -0.119909
    169 H78         6.6490    1.7420    3.2360 h1        1 MOL      0.060107
    170 H79         6.0450    0.1750    3.8250 h1        1 MOL      0.060107
    171 H80         7.5550    0.2500    2.8850 h1        1 MOL      0.060107
    172 H81         5.8010   -0.4070    1.3440 hn        1 MOL      0.069814
    173 Ca1        -1.6260   -0.3700   -1.1380 Ca        1 MOL      1.753976
    174 O23        -1.1790   -2.8720   -1.9630 oh        1 MOL     -0.898451
    175 H82        -0.4400   -3.0290   -2.5410 ho        1 MOL      0.420737
    176 H83        -1.5340   -3.7440   -1.7960 ho        1 MOL      0.420737
    177 O24        -1.6210   -0.4880   -3.7150 oh        1 MOL     -0.898451
    178 H84        -1.2170   -0.7590   -4.5430 ho        1 MOL      0.420737
    179 H85        -2.0110    0.3670   -3.9060 ho        1 MOL      0.420737
@<TRIPOS>BOND
     1    1    2 1   
     2    1    4 1   
     3    1    5 1   
     4    1    6 1   
     5    2    3 2   
     6    2    7 1   
     7    7    8 1   
     8    7   15 1   
     9    8    9 1   
    10    8   11 1   
    11    8   16 1   
    12    9   10 2   
    13    9   19 1   
    14   11   12 1   
    15   11   17 1   
    16   11   18 1   
    17   12   13 1   
    18   12   14 1   
    19   19   20 1   
    20   19   28 1   
    21   20   21 1   
    22   20   23 1   
    23   20   29 1   
    24   21   22 2   
    25   21   41 1   
    26   23   24 1   
    27   23   30 1   
    28   23   31 1   
    29   24   25 1   
    30   24   32 1   
    31   24   33 1   
    32   25   26 1   
    33   25   34 1   
    34   25   35 1   
    35   26   27 1   
    36   26   36 1   
    37   26   37 1   
    38   27   38 1   
    39   27   39 1   
    40   27   40 1   
    41   41   42 1   
    42   41   49 1   
    43   42   43 1   
    44   42   45 1   
    45   42   50 1   
    46   43   44 2   
    47   43   53 1   
    48   45   46 1   
    49   45   51 1   
    50   45   52 1   
    51   46   47 1   
    52   46   48 1   
    53   53   54 1   
    54   53   57 1   
    55   54   55 1   
    56   54   58 1   
    57   54   59 1   
    58   55   56 2   
    59   55   60 1   
    60   60   61 1   
    61   60   68 1   
    62   61   62 1   
    63   61   64 1   
    64   61   69 1   
    65   62   63 2   
    66   62   74 1   
    67   64   65 1   
    68   64   70 1   
    69   64   71 1   
    70   65   66 1   
    71   65   67 2   
    72   66   72 1   
    73   66   73 1   
    74   74   75 1   
    75   74   78 1   
    76   75   76 1   
    77   75   79 1   
    78   75   80 1   
    79   76   77 2   
    80   76   81 1   
    81   81   82 1   
    82   81   93 1   
    83   82   83 1   
    84   82   85 1   
    85   82   94 1   
    86   83   84 2   
    87   83  102 1   
    88   85   86 1   
    89   85   95 1   
    90   85   96 1   
    91   86   87 ar  
    92   86   88 ar  
    93   87   89 ar  
    94   87   97 1   
    95   88   90 ar  
    96   88   98 1   
    97   89   91 ar  
    98   89   99 1   
    99   90   91 ar  
   100   90  100 1   
   101   91   92 1   
   102   92  101 1   
   103  102  103 1   
   104  102  110 1   
   105  103  104 1   
   106  103  106 1   
   107  103  111 1   
   108  104  105 2   
   109  104  121 1   
   110  106  107 1   
   111  106  108 1   
   112  106  112 1   
   113  107  109 1   
   114  107  113 1   
   115  107  114 1   
   116  108  115 1   
   117  108  116 1   
   118  108  117 1   
   119  109  118 1   
   120  109  119 1   
   121  109  120 1   
   122  121  122 1   
   123  121  127 1   
   124  122  123 1   
   125  122  125 1   
   126  122  128 1   
   127  123  124 2   
   128  123  132 1   
   129  125  126 1   
   130  125  129 1   
   131  125  130 1   
   132  126  131 1   
   133  132  133 1   
   134  132  137 1   
   135  133  134 1   
   136  133  136 1   
   137  133  138 1   
   138  134  135 2   
   139  134  142 1   
   140  136  139 1   
   141  136  140 1   
   142  136  141 1   
   143  142  143 1   
   144  142  147 1   
   145  143  144 1   
   146  143  146 1   
   147  143  148 1   
   148  144  145 2   
   149  144  152 1   
   150  146  149 1   
   151  146  150 1   
   152  146  151 1   
   153  152  153 1   
   154  152  161 1   
   155  153  154 1   
   156  153  156 1   
   157  153  162 1   
   158  154  155 2   
   159  154  167 1   
   160  156  157 1   
   161  156  163 1   
   162  156  164 1   
   163  157  158 1   
   164  157  165 1   
   165  157  166 1   
   166  158  159 1   
   167  158  160 1   
   168  167  168 1   
   169  167  172 1   
   170  168  169 1   
   171  168  170 1   
   172  168  171 1   
   173  174  175 1   
   174  174  176 1   
   175  177  178 1   
   176  177  179 1   
@<TRIPOS>SUBSTRUCTURE
     1 MOL         1 TEMP              0 ****  ****    0 ROOT
