@<TRIPOS>MOLECULE
MOL
  175   173     1     0     0
SMALL
resp


@<TRIPOS>ATOM
      1 C1          0.8030    4.3150    5.2670 c3        1 MOL     -0.307957
      2 C2          0.1750    4.1260    3.8600 c         1 MOL      0.648139
      3 O1          0.9430    4.3320    2.8720 o         1 MOL     -0.501556
      4 H1          0.2040    3.7830    6.0060 hc        1 MOL      0.068633
      5 H2          1.8180    3.9180    5.2680 hc        1 MOL      0.068633
      6 H3          0.8280    5.3770    5.5150 hc        1 MOL      0.068633
      7 N1         -1.0810    3.6410    3.8790 n         1 MOL     -0.609475
      8 C3         -1.8860    3.4290    2.6450 c3        1 MOL      0.303809
      9 C4         -1.9800    4.6290    1.6630 c         1 MOL      0.325154
     10 O2         -1.7840    5.7630    2.1060 o         1 MOL     -0.549268
     11 C5         -3.2620    2.9740    3.0490 c3        1 MOL     -0.290905
     12 C6         -4.0530    2.2720    1.9320 c         1 MOL      0.816346
     13 O3         -5.1280    1.7430    2.2790 o         1 MOL     -0.728738
     14 O4         -3.6770    2.1060    0.7460 o         1 MOL     -0.728738
     15 H4         -1.4870    3.4060    4.7790 hn        1 MOL      0.335635
     16 H5         -1.4390    2.6020    2.0810 h1        1 MOL     -0.040914
     17 H6         -3.8320    3.8060    3.4400 hc        1 MOL      0.053585
     18 H7         -3.2580    2.2910    3.8980 hc        1 MOL      0.053585
     19 N2         -2.0770    4.4010    0.4090 n         1 MOL     -0.210710
     20 C7         -2.2810    5.4540   -0.6330 c3        1 MOL      0.067480
     21 C8         -3.2540    4.9880   -1.7310 c         1 MOL      0.525974
     22 O5         -3.4510    5.7540   -2.6610 o         1 MOL     -0.560354
     23 C9         -0.8630    5.7270   -1.1200 c3        1 MOL     -0.229536
     24 H8         -2.0820    3.4530    0.0730 hn        1 MOL      0.382859
     25 H9         -2.5990    6.3820   -0.1740 h1        1 MOL      0.051657
     26 H10        -0.2260    5.8070   -0.2340 hc        1 MOL      0.062589
     27 H11        -0.4730    4.8140   -1.5460 hc        1 MOL      0.062589
     28 H12        -0.8240    6.5230   -1.8700 hc        1 MOL      0.062589
     29 N3         -3.9860    3.8650   -1.5880 n         1 MOL     -0.340445
     30 C10        -4.9720    3.4550   -2.5870 c3        1 MOL      0.044293
     31 C11        -6.1830    2.6960   -1.9900 c         1 MOL      0.483190
     32 O6         -7.1520    2.5730   -2.6980 o         1 MOL     -0.570456
     33 C12        -4.2730    2.5990   -3.6280 c3        1 MOL     -0.002146
     34 C13        -3.3690    1.3860   -3.2660 c         1 MOL      0.726995
     35 O7         -3.5790    0.8340   -2.2120 o         1 MOL     -0.694107
     36 O8         -2.4720    1.1050   -4.0260 o         1 MOL     -0.694107
     37 H13        -3.9230    3.4150   -0.6800 hn        1 MOL      0.013130
     38 H14        -5.3680    4.3700   -3.0370 h1        1 MOL      0.060515
     39 H15        -3.6780    3.3160   -4.1860 hc        1 MOL     -0.018655
     40 H16        -4.9890    2.2190   -4.3520 hc        1 MOL     -0.018655
     41 N4         -6.1250    2.2860   -0.7310 n         1 MOL     -0.312153
     42 C14        -7.2090    1.4550   -0.1090 c3        1 MOL     -0.344326
     43 C15        -7.1570   -0.0580   -0.6250 c         1 MOL      0.584763
     44 O9         -8.1100   -0.6850   -0.2300 o         1 MOL     -0.605253
     45 H17        -5.2850    2.4630   -0.2040 hn        1 MOL      0.306814
     46 H18        -8.1180    1.9590   -0.4310 h1        1 MOL      0.169833
     47 H19        -7.1890    1.5720    0.9730 h1        1 MOL      0.169833
     48 N5         -6.2680   -0.6190   -1.4590 n         1 MOL     -0.235687
     49 C16        -6.1780   -2.0080   -1.9920 c3        1 MOL     -0.015842
     50 C17        -5.9900   -3.1580   -0.9690 c         1 MOL      0.418212
     51 O10        -6.0300   -4.3000   -1.3350 o         1 MOL     -0.520040
     52 C18        -5.0230   -2.0000   -3.0490 c3        1 MOL     -0.170924
     53 C19        -3.6910   -2.3640   -2.4680 c         1 MOL      0.573907
     54 N6         -2.7310   -2.6930   -3.3160 n         1 MOL     -0.630035
     55 O11        -3.4470   -2.1400   -1.2870 o         1 MOL     -0.530838
     56 H20        -5.4550   -0.0670   -1.7140 hn        1 MOL      0.147872
     57 H21        -7.1220   -2.1880   -2.5140 h1        1 MOL      0.097824
     58 H22        -4.9100   -1.0080   -3.4930 hc        1 MOL      0.062699
     59 H23        -5.1290   -2.7080   -3.8750 hc        1 MOL      0.062699
     60 H24        -3.0600   -2.7960   -4.2710 hn        1 MOL      0.324079
     61 H25        -1.7540   -2.4680   -3.1520 hn        1 MOL      0.324079
     62 N7         -6.1170   -2.9030    0.3170 n         1 MOL     -0.180072
     63 C20        -6.2800   -3.8200    1.4110 c3        1 MOL     -0.186520
     64 C21        -4.9950   -4.4060    1.9260 c         1 MOL      0.477972
     65 O12        -5.0180   -5.1730    2.8940 o         1 MOL     -0.580025
     66 H26        -6.4450   -1.9620    0.5020 hn        1 MOL      0.217873
     67 H27        -6.9400   -4.6400    1.1210 h1        1 MOL      0.103731
     68 H28        -6.7400   -3.3040    2.2600 h1        1 MOL      0.103731
     69 N8         -3.8740   -4.1440    1.2390 n         1 MOL     -0.194242
     70 C22        -2.5240   -4.5310    1.5520 c3        1 MOL     -0.145150
     71 C23        -1.4460   -3.4390    1.5700 c         1 MOL      0.605086
     72 O13        -1.6770   -2.4230    0.9880 o         1 MOL     -0.635598
     73 C24        -2.0940   -5.5770    0.4990 c3        1 MOL      0.559277
     74 C25        -2.8150   -6.8870    0.5570 c3        1 MOL     -0.493428
     75 O14        -2.4110   -5.1290   -0.8240 oh        1 MOL     -0.628637
     76 H29        -4.0400   -3.4740    0.5030 hn        1 MOL      0.231593
     77 H30        -2.5440   -4.9880    2.5420 h1        1 MOL      0.059201
     78 H31        -1.0460   -5.7800    0.6780 h1        1 MOL     -0.061036
     79 H32        -2.0220   -4.2710   -1.0060 ho        1 MOL      0.353514
     80 H33        -2.3410   -7.4780    1.3460 hc        1 MOL      0.120143
     81 H34        -3.8890   -6.7630    0.7100 hc        1 MOL      0.120143
     82 H35        -2.6180   -7.3720   -0.3910 hc        1 MOL      0.120143
     83 N9         -0.3540   -3.6180    2.2700 n         1 MOL     -0.522227
     84 C26         0.8360   -2.8260    2.0630 c3        1 MOL      0.073475
     85 C27         1.4610   -3.0860    0.6750 c         1 MOL      0.586944
     86 O15         1.7920   -4.2660    0.3490 o         1 MOL     -0.601626
     87 C28         1.8120   -2.9480    3.2490 c3        1 MOL      0.076965
     88 C29         1.5130   -1.7230    4.1110 c3        1 MOL      0.061636
     89 C30         3.2700   -2.9480    2.9900 c3        1 MOL     -0.131823
     90 C31         2.4410   -1.5930    5.3120 c3        1 MOL     -0.262681
     91 H36        -0.3560   -4.4120    2.8930 hn        1 MOL      0.283265
     92 H37         0.5580   -1.7770    2.0700 h1        1 MOL     -0.065043
     93 H38         1.6160   -3.8580    3.8110 hc        1 MOL      0.016029
     94 H39         0.4940   -1.7830    4.4680 hc        1 MOL     -0.000138
     95 H40         1.5630   -0.8450    3.4690 hc        1 MOL     -0.000138
     96 H41         3.9760   -3.0030    3.8120 hc        1 MOL      0.015703
     97 H42         3.4330   -3.7390    2.2500 hc        1 MOL      0.015703
     98 H43         3.4950   -2.0450    2.4210 hc        1 MOL      0.015703
     99 H44         2.0200   -0.8190    5.9620 hc        1 MOL      0.063682
    100 H45         2.4900   -2.5860    5.7460 hc        1 MOL      0.063682
    101 H46         3.4140   -1.3120    4.9090 hc        1 MOL      0.063682
    102 N10         1.6520   -2.0260   -0.0850 n         1 MOL     -0.301367
    103 C32         2.4720   -1.9260   -1.3060 c3        1 MOL     -0.020178
    104 C33         3.9240   -1.5370   -0.8370 c         1 MOL      0.462338
    105 O16         4.0430   -0.7500    0.1430 o         1 MOL     -0.346102
    106 C34         1.7750   -0.9360   -2.3480 c3        1 MOL     -0.233931
    107 C35         0.3520   -1.3900   -2.5600 c         1 MOL      0.805377
    108 O17        -0.5520   -0.8990   -1.8820 o         1 MOL     -0.697422
    109 O18         0.1670   -2.2790   -3.4270 o         1 MOL     -0.697422
    110 H47         1.1440   -1.2000    0.2250 hn        1 MOL      0.292087
    111 H48         2.5310   -2.8860   -1.8210 h1        1 MOL      0.067311
    112 H49         2.3560   -0.8780   -3.2780 hc        1 MOL      0.051467
    113 H50         1.7140    0.0610   -1.9160 hc        1 MOL      0.051467
    114 N11         4.9060   -1.8800   -1.6050 n         1 MOL     -0.574645
    115 C36         6.3210   -1.4900   -1.3450 c3        1 MOL      0.271596
    116 C37         6.6450    0.0830   -1.1780 c         1 MOL      0.305833
    117 O19         7.4440    0.4510   -0.2890 o         1 MOL     -0.435722
    118 C38         7.2360   -1.9640   -2.4670 c3        1 MOL     -0.229781
    119 C39         8.7520   -1.9550   -2.0610 ca        1 MOL      0.042701
    120 C40         9.2490   -2.6640   -0.9570 ca        1 MOL     -0.140178
    121 C41         9.5980   -1.0790   -2.7710 ca        1 MOL     -0.140178
    122 C42        10.5310   -2.5450   -0.5090 ca        1 MOL     -0.110916
    123 C43        10.9480   -0.9900   -2.3090 ca        1 MOL     -0.110916
    124 C44        11.3910   -1.7020   -1.1860 ca        1 MOL     -0.108437
    125 H51         4.6820   -2.4360   -2.4160 hn        1 MOL      0.333794
    126 H52         6.6110   -1.9580   -0.4140 h1        1 MOL      0.072942
    127 H53         6.9990   -1.3690   -3.3540 hc        1 MOL      0.081052
    128 H54         6.9440   -2.9780   -2.7360 hc        1 MOL      0.081052
    129 H55         8.5670   -3.3060   -0.4380 ha        1 MOL      0.117967
    130 H56         9.3040   -0.4510   -3.5990 ha        1 MOL      0.117967
    131 H57        10.8710   -3.1450    0.3280 ha        1 MOL      0.109735
    132 H58        11.5570   -0.2210   -2.7530 ha        1 MOL      0.109735
    133 H59        12.3850   -1.5560   -0.7810 ha        1 MOL      0.099495
    134 N12         6.0200    1.1020   -1.9310 n         1 MOL     -0.061338
    135 C45         6.0630    2.5350   -1.6520 c3        1 MOL     -0.086752
    136 C46         5.6570    2.8540   -0.2070 c         1 MOL      0.308166
    137 O20         6.3340    3.6130    0.4350 o         1 MOL     -0.485211
    138 C47         5.0590    3.2470   -2.6580 c3        1 MOL      0.115998
    139 C48         4.9650    2.1500   -3.7930 c3        1 MOL     -0.063890
    140 C49         5.2260    0.8010   -3.1490 c3        1 MOL     -0.048174
    141 H60         7.0990    2.8670   -1.8060 h1        1 MOL      0.058652
    142 H61         4.1200    3.3430   -2.1100 hc        1 MOL     -0.013002
    143 H62         5.3320    4.1790   -3.1510 hc        1 MOL     -0.013002
    144 H63         4.0090    2.2260   -4.3040 hc        1 MOL      0.037875
    145 H64         5.7410    2.3480   -4.5310 hc        1 MOL      0.037875
    146 H65         4.3210    0.3360   -2.7370 h1        1 MOL      0.036112
    147 H66         5.7580    0.2270   -3.9110 h1        1 MOL      0.036112
    148 N13         4.5910    2.1700    0.2400 n         1 MOL     -0.012410
    149 C50         4.0260    2.2930    1.5610 c3        1 MOL     -0.216110
    150 C51         4.9320    1.5650    2.5430 c         1 MOL      0.522142
    151 O21         5.1290    2.1720    3.6040 o         1 MOL     -0.564479
    152 C52         2.5770    1.7440    1.4690 c3        1 MOL      0.050648
    153 C53         1.6550    2.3550    0.3580 c3        1 MOL     -0.433863
    154 C54         0.3040    1.5940    0.2700 c         1 MOL      0.754712
    155 O22         0.2080    0.3880    0.7010 o         1 MOL     -0.715734
    156 O23        -0.7070    2.1250   -0.3510 o         1 MOL     -0.715734
    157 H67         4.0950    1.5860   -0.4100 hn        1 MOL      0.251014
    158 H68         4.0340    3.3490    1.8650 h1        1 MOL      0.125366
    159 H69         2.0410    1.6950    2.4200 hc        1 MOL      0.035513
    160 H70         2.7330    0.6870    1.2690 hc        1 MOL      0.035513
    161 H71         2.0590    2.1460   -0.6300 hc        1 MOL      0.119404
    162 H72         1.4870    3.4000    0.6100 hc        1 MOL      0.119404
    163 N14         5.6290    0.4790    2.1860 n         1 MOL     -0.134430
    164 C55         6.5460   -0.2420    3.1400 c3        1 MOL     -0.300248
    165 H73         5.9520   -0.7830    3.8760 h1        1 MOL      0.111208
    166 H74         7.1670   -0.9460    2.5850 h1        1 MOL      0.111208
    167 H75         7.1830    0.4810    3.6490 h1        1 MOL      0.111208
    168 H76         5.5240   -0.0030    1.3030 hn        1 MOL      0.096219
    169 Ca1        -2.2800   -0.1010   -0.1080 Ca        1 MOL      1.647930
    170 O24        -4.4630   -0.6850    1.3360 oh        1 MOL     -0.711584
    171 H77        -4.2550   -1.1650    2.1390 ho        1 MOL      0.362811
    172 H78        -5.1900   -0.1130    1.5770 ho        1 MOL      0.362811
    173 O25        -1.7840   -0.1480    2.6470 oh        1 MOL     -0.711584
    174 H79        -1.7570   -0.0840    3.5930 ho        1 MOL      0.362811
    175 H80        -0.8710   -0.1900    2.3720 ho        1 MOL      0.362811
@<TRIPOS>BOND
     1    1    2 1   
     2    1    4 1   
     3    1    5 1   
     4    1    6 1   
     5    2    3 2   
     6    2    7 1   
     7    7    8 1   
     8    7   15 1   
     9    8    9 1   
    10    8   11 1   
    11    8   16 1   
    12    9   10 2   
    13    9   19 1   
    14   11   12 1   
    15   11   17 1   
    16   11   18 1   
    17   12   13 1   
    18   12   14 1   
    19   19   20 1   
    20   19   24 1   
    21   20   21 1   
    22   20   23 1   
    23   20   25 1   
    24   21   22 2   
    25   21   29 1   
    26   23   26 1   
    27   23   27 1   
    28   23   28 1   
    29   29   30 1   
    30   29   37 1   
    31   30   31 1   
    32   30   33 1   
    33   30   38 1   
    34   31   32 2   
    35   31   41 1   
    36   33   34 1   
    37   33   39 1   
    38   33   40 1   
    39   34   35 1   
    40   34   36 1   
    41   41   42 1   
    42   41   45 1   
    43   42   43 1   
    44   42   46 1   
    45   42   47 1   
    46   43   44 2   
    47   43   48 1   
    48   48   49 1   
    49   48   56 1   
    50   49   50 1   
    51   49   52 1   
    52   49   57 1   
    53   50   51 2   
    54   50   62 1   
    55   52   53 1   
    56   52   58 1   
    57   52   59 1   
    58   53   54 1   
    59   53   55 2   
    60   54   60 1   
    61   54   61 1   
    62   62   63 1   
    63   62   66 1   
    64   63   64 1   
    65   63   67 1   
    66   63   68 1   
    67   64   65 2   
    68   64   69 1   
    69   69   70 1   
    70   69   76 1   
    71   70   71 1   
    72   70   73 1   
    73   70   77 1   
    74   71   72 2   
    75   71   83 1   
    76   73   74 1   
    77   73   75 1   
    78   73   78 1   
    79   74   80 1   
    80   74   81 1   
    81   74   82 1   
    82   75   79 1   
    83   83   84 1   
    84   83   91 1   
    85   84   85 1   
    86   84   87 1   
    87   84   92 1   
    88   85   86 2   
    89   85  102 1   
    90   87   88 1   
    91   87   89 1   
    92   87   93 1   
    93   88   90 1   
    94   88   94 1   
    95   88   95 1   
    96   89   96 1   
    97   89   97 1   
    98   89   98 1   
    99   90   99 1   
   100   90  100 1   
   101   90  101 1   
   102  102  103 1   
   103  102  110 1   
   104  103  104 1   
   105  103  106 1   
   106  103  111 1   
   107  104  105 2   
   108  104  114 1   
   109  106  107 1   
   110  106  112 1   
   111  106  113 1   
   112  107  108 1   
   113  107  109 1   
   114  114  115 1   
   115  114  125 1   
   116  115  116 1   
   117  115  118 1   
   118  115  126 1   
   119  116  117 2   
   120  116  134 1   
   121  118  119 1   
   122  118  127 1   
   123  118  128 1   
   124  119  120 ar  
   125  119  121 ar  
   126  120  122 ar  
   127  120  129 1   
   128  121  123 ar  
   129  121  130 1   
   130  122  124 ar  
   131  122  131 1   
   132  123  124 ar  
   133  123  132 1   
   134  124  133 1   
   135  134  135 1   
   136  134  140 1   
   137  135  136 1   
   138  135  138 1   
   139  135  141 1   
   140  136  137 2   
   141  136  148 1   
   142  138  139 1   
   143  138  142 1   
   144  138  143 1   
   145  139  140 1   
   146  139  144 1   
   147  139  145 1   
   148  140  146 1   
   149  140  147 1   
   150  148  149 1   
   151  148  157 1   
   152  149  150 1   
   153  149  152 1   
   154  149  158 1   
   155  150  151 2   
   156  150  163 1   
   157  152  153 1   
   158  152  159 1   
   159  152  160 1   
   160  153  154 1   
   161  153  161 1   
   162  153  162 1   
   163  154  155 1   
   164  154  156 1   
   165  163  164 1   
   166  163  168 1   
   167  164  165 1   
   168  164  166 1   
   169  164  167 1   
   170  170  171 1   
   171  170  172 1   
   172  173  174 1   
   173  173  175 1   
@<TRIPOS>SUBSTRUCTURE
     1 MOL         1 TEMP              0 ****  ****    0 ROOT
