@<TRIPOS>MOLECULE
MOL
  189   185     1     0     0
SMALL
resp


@<TRIPOS>ATOM
      1 C1          0.0540    3.2860    5.5100 c3        1 MOL     -0.280991
      2 C2         -0.3320    2.6530    4.1600 c         1 MOL      0.685746
      3 O1          0.5430    2.7560    3.3150 o         1 MOL     -0.575601
      4 H1          0.7310    4.1230    5.3380 hc        1 MOL      0.067078
      5 H2         -0.8450    3.6440    6.0130 hc        1 MOL      0.067078
      6 H3          0.5470    2.5410    6.1340 hc        1 MOL      0.067078
      7 N1         -1.4990    2.0420    4.0080 n         1 MOL     -0.631723
      8 C3         -2.0630    1.5890    2.6770 c3        1 MOL      0.334370
      9 C4         -2.6780    2.8040    1.9760 c         1 MOL      0.259230
     10 O2         -3.7440    3.2740    2.2930 o         1 MOL     -0.510843
     11 C5         -3.1000    0.4170    2.8050 c3        1 MOL     -0.317825
     12 C6         -3.8870    0.2690    1.4630 c         1 MOL      0.794440
     13 O3         -3.2930    0.1910    0.3410 o         1 MOL     -0.686982
     14 O4         -5.1810    0.1470    1.4250 o         1 MOL     -0.686982
     15 H4         -1.9530    1.7880    4.8760 hn        1 MOL      0.338916
     16 H5         -1.2300    1.2100    2.0960 h1        1 MOL     -0.001073
     17 H6         -3.8000    0.7100    3.5860 hc        1 MOL      0.072159
     18 H7         -2.5880   -0.5410    2.8660 hc        1 MOL      0.072159
     19 N2         -2.0070    3.3800    1.0420 n         1 MOL      0.008812
     20 C7         -2.5520    4.6250    0.4300 c3        1 MOL      0.029358
     21 C8         -3.5830    4.4540   -0.7870 c         1 MOL      0.509865
     22 O5         -4.5330    5.2260   -0.9720 o         1 MOL     -0.571285
     23 C9         -1.4280    5.4860    0.0490 c3        1 MOL     -0.252074
     24 C10        -0.5170    6.0600    1.1770 c3        1 MOL      0.323252
     25 C11        -1.1540    7.0530    2.0570 c3        1 MOL     -0.135212
     26 C12        -0.2530    7.9490    2.8490 c3        1 MOL     -0.026372
     27 N3          0.7240    8.7680    2.0320 n4        1 MOL     -0.373085
     28 H8         -1.1490    2.8990    0.8100 hn        1 MOL      0.135048
     29 H9         -3.0110    5.1260    1.2810 h1        1 MOL      0.023048
     30 H10        -1.9080    6.3520   -0.4070 hc        1 MOL      0.041189
     31 H11        -0.8270    4.9300   -0.6640 hc        1 MOL      0.041189
     32 H12         0.2110    6.5790    0.5570 hc        1 MOL     -0.068019
     33 H13         0.0270    5.2890    1.7300 hc        1 MOL     -0.068019
     34 H14        -1.6850    6.5190    2.8430 hc        1 MOL      0.076838
     35 H15        -1.7360    7.6790    1.3830 hc        1 MOL      0.076838
     36 H16         0.2340    7.2560    3.5370 hx        1 MOL      0.105320
     37 H17        -0.8660    8.5500    3.5270 hx        1 MOL      0.105320
     38 H18         1.3790    8.2220    1.4880 hn        1 MOL      0.331692
     39 H19         0.2730    9.4830    1.4640 hn        1 MOL      0.331692
     40 H20         1.2720    9.3110    2.6790 hn        1 MOL      0.331692
     41 N4         -3.4960    3.3580   -1.5420 n         1 MOL     -0.358943
     42 C13        -4.3250    3.2440   -2.7910 c3        1 MOL      0.031106
     43 C14        -5.5500    2.4280   -2.5640 c         1 MOL      0.415100
     44 O6         -6.3140    2.0920   -3.4760 o         1 MOL     -0.489532
     45 C15        -3.5190    2.8120   -3.9670 c3        1 MOL     -0.140262
     46 C16        -2.4360    1.7660   -3.7010 c         1 MOL      0.910474
     47 O7         -2.5440    1.0720   -2.6860 o         1 MOL     -0.807691
     48 O8         -1.4640    1.6260   -4.5150 o         1 MOL     -0.807691
     49 H21        -2.9200    2.5720   -1.2600 hn        1 MOL      0.211342
     50 H22        -4.7650    4.2180   -3.0440 h1        1 MOL      0.122670
     51 H23        -2.9940    3.6860   -4.3450 hc        1 MOL      0.018755
     52 H24        -4.2020    2.5230   -4.7600 hc        1 MOL      0.018755
     53 N5         -5.8750    2.0480   -1.2600 n         1 MOL     -0.186016
     54 C17        -7.0780    1.4050   -0.7010 c3        1 MOL     -0.270405
     55 C18        -7.4270   -0.0190   -1.1920 c         1 MOL      0.634540
     56 O9         -8.4780   -0.1890   -1.8040 o         1 MOL     -0.563788
     57 H25        -5.1070    2.1730   -0.6200 hn        1 MOL      0.227002
     58 H26        -7.9140    2.0270   -0.9880 h1        1 MOL      0.113161
     59 H27        -7.0880    1.4140    0.3920 h1        1 MOL      0.113161
     60 N6         -6.5060   -0.9830   -0.8860 n         1 MOL     -0.362034
     61 C19        -6.6830   -2.4100   -1.1060 c3        1 MOL     -0.011439
     62 C20        -6.3500   -3.2290    0.1320 c         1 MOL      0.333785
     63 O10        -6.3250   -4.5310   -0.0340 o         1 MOL     -0.526409
     64 C21        -5.7190   -2.7890   -2.3040 c3        1 MOL     -0.054126
     65 C22        -4.2730   -2.4570   -2.0070 c         1 MOL      0.694876
     66 O11        -3.5750   -2.0170   -2.9600 o         1 MOL     -0.711750
     67 O12        -3.7380   -2.7490   -0.9280 o         1 MOL     -0.711750
     68 H28        -5.6830   -0.5270   -0.5360 hn        1 MOL      0.159976
     69 H29        -7.6920   -2.7680   -1.3210 h1        1 MOL      0.114043
     70 H30        -6.1020   -2.2410   -3.1690 hc        1 MOL      0.040565
     71 H31        -5.8190   -3.8330   -2.6140 hc        1 MOL      0.040565
     72 N7         -5.9390   -2.5910    1.2640 n         1 MOL     -0.079071
     73 C23        -5.7710   -3.2250    2.5000 c3        1 MOL     -0.181879
     74 C24        -4.4630   -4.0920    2.6240 c         1 MOL      0.468316
     75 O13        -4.3590   -5.0120    3.4680 o         1 MOL     -0.538541
     76 H32        -5.9970   -1.5840    1.1960 hn        1 MOL      0.182219
     77 H33        -6.6640   -3.8130    2.7280 h1        1 MOL      0.088235
     78 H34        -5.6260   -2.4460    3.2490 h1        1 MOL      0.088235
     79 N8         -3.5030   -3.7790    1.7320 n         1 MOL     -0.085306
     80 C25        -2.1770   -4.3180    1.6650 c3        1 MOL     -0.437469
     81 C26        -1.1070   -3.2790    1.5970 c         1 MOL      0.943939
     82 O14        -1.3330   -2.2190    1.0500 o         1 MOL     -0.765558
     83 C27        -2.0190   -5.4510    0.5960 c3        1 MOL      0.523454
     84 C28        -2.7580   -6.7860    0.6680 c3        1 MOL     -0.415365
     85 O15        -2.3710   -4.9950   -0.6640 oh        1 MOL     -0.672188
     86 H35        -3.6610   -3.0380    1.0600 hn        1 MOL      0.140389
     87 H36        -1.9500   -4.7930    2.6210 h1        1 MOL      0.092190
     88 H37        -0.9510   -5.6650    0.5930 h1        1 MOL     -0.031282
     89 H38        -2.9720   -4.2550   -0.6370 ho        1 MOL      0.456214
     90 H39        -2.4480   -7.3000   -0.2410 hc        1 MOL      0.108882
     91 H40        -2.4760   -7.4170    1.4970 hc        1 MOL      0.108882
     92 H41        -3.8510   -6.6610    0.6520 hc        1 MOL      0.108882
     93 N9          0.0820   -3.6220    2.0830 n         1 MOL     -0.639547
     94 C29         1.3480   -2.8540    2.0530 c3        1 MOL      0.265573
     95 C30         2.2650   -3.3250    0.9010 c         1 MOL      0.414268
     96 O16         2.8130   -4.3960    1.0870 o         1 MOL     -0.527438
     97 C31         2.0050   -2.8250    3.4860 c3        1 MOL     -0.162228
     98 C32         1.1830   -1.9460    4.4370 c3        1 MOL      0.033023
     99 C33         3.5170   -2.3700    3.4850 c3        1 MOL     -0.006154
    100 C34         1.7420   -1.6490    5.7850 c3        1 MOL     -0.182421
    101 H42         0.2250   -4.5160    2.5190 hn        1 MOL      0.306255
    102 H43         1.1530   -1.8010    1.8430 h1        1 MOL      0.052397
    103 H44         1.9740   -3.8240    3.9100 hc        1 MOL      0.056923
    104 H45         0.1300   -2.2100    4.3640 hc        1 MOL      0.017446
    105 H46         1.0950   -0.9650    3.9740 hc        1 MOL      0.017446
    106 H47         4.2310   -3.1530    3.2280 hc        1 MOL     -0.003477
    107 H48         3.6580   -1.5810    2.7440 hc        1 MOL     -0.003477
    108 H49         3.8670   -1.9870    4.4470 hc        1 MOL     -0.003477
    109 H50         0.9410   -1.3570    6.4570 hc        1 MOL      0.052976
    110 H51         2.1690   -2.5870    6.1530 hc        1 MOL      0.052976
    111 H52         2.5640   -0.9290    5.7720 hc        1 MOL      0.052976
    112 N10         2.4800   -2.5080   -0.1360 n         1 MOL     -0.237471
    113 C35         3.5450   -2.5960   -1.2240 c3        1 MOL      0.019745
    114 C36         4.9510   -2.1950   -0.6210 c         1 MOL      0.308925
    115 O17         4.9350   -1.5530    0.4310 o         1 MOL     -0.229945
    116 C37         3.3100   -1.8610   -2.5670 c3        1 MOL      0.256536
    117 C38         2.3560   -2.6690   -3.3960 c3        1 MOL     -0.292044
    118 O18         2.7130   -0.6500   -2.2480 oh        1 MOL     -0.697624
    119 H53         1.7800   -1.7880   -0.3030 hn        1 MOL      0.152728
    120 H54         3.6300   -3.6710   -1.3970 h1        1 MOL      0.054064
    121 H55         4.3190   -1.7440   -2.9570 h1        1 MOL      0.023448
    122 H56         2.0390   -0.8840   -1.6090 ho        1 MOL      0.435754
    123 H57         2.1480   -2.1670   -4.3390 hc        1 MOL      0.078057
    124 H58         2.8200   -3.6370   -3.6020 hc        1 MOL      0.078057
    125 H59         1.4360   -2.9200   -2.8810 hc        1 MOL      0.078057
    126 N11         6.0700   -2.5210   -1.2690 n         1 MOL     -0.321604
    127 C39         7.4040   -2.0480   -0.7420 c3        1 MOL     -0.176726
    128 C40         7.5190   -0.4840   -0.6240 c         1 MOL      0.428386
    129 O19         8.1570   -0.0350    0.2980 o         1 MOL     -0.481131
    130 C41         8.5450   -2.4380   -1.6730 c3        1 MOL      0.264103
    131 C42         8.7410   -3.9740   -1.7500 c3        1 MOL     -0.355408
    132 O20         8.2340   -2.0480   -3.0070 oh        1 MOL     -0.616525
    133 H60         6.0350   -3.1600   -2.0440 hn        1 MOL      0.290726
    134 H61         7.5940   -2.4730    0.2480 h1        1 MOL      0.165065
    135 H62         9.5140   -2.0550   -1.3470 h1        1 MOL      0.070499
    136 H63         9.0000   -2.3240   -3.5180 ho        1 MOL      0.409759
    137 H64         8.1360   -4.2900   -2.6110 hc        1 MOL      0.099230
    138 H65         9.7360   -4.3280   -2.0020 hc        1 MOL      0.099230
    139 H66         8.5480   -4.5510   -0.8450 hc        1 MOL      0.099230
    140 N12         6.8200    0.3180   -1.4900 n         1 MOL     -0.237747
    141 C43         6.7640    1.7690   -1.4430 c3        1 MOL     -0.105501
    142 C44         5.9470    2.2710   -0.2470 c         1 MOL      0.394067
    143 O21         6.0820    3.3950    0.2420 o         1 MOL     -0.520850
    144 C45         6.2250    2.2590   -2.7180 c3        1 MOL     -0.101038
    145 C46         4.8580    1.8390   -3.0010 c3        1 MOL      0.221528
    146 C47         4.3860    2.2860   -4.3730 c3        1 MOL     -0.231380
    147 C48         2.9240    1.8470   -4.5090 c3        1 MOL      0.101463
    148 N13         2.2600    2.4010   -5.6650 n4        1 MOL     -0.437392
    149 H67         6.3490   -0.0790   -2.2920 hn        1 MOL      0.193550
    150 H68         7.7590    2.1980   -1.3710 h1        1 MOL      0.135358
    151 H69         6.8840    1.9760   -3.5380 hc        1 MOL      0.036547
    152 H70         6.2660    3.3440   -2.6630 hc        1 MOL      0.036547
    153 H71         4.2820    2.2010   -2.1570 hc        1 MOL     -0.007429
    154 H72         4.8460    0.7480   -2.9590 hc        1 MOL     -0.007429
    155 H73         4.9540    1.7070   -5.0950 hc        1 MOL      0.064312
    156 H74         4.4950    3.3390   -4.6200 hc        1 MOL      0.064312
    157 H75         2.4240    2.0680   -3.5660 hx        1 MOL      0.101029
    158 H76         2.7900    0.7770   -4.5660 hx        1 MOL      0.101029
    159 H77         2.7730    2.1880   -6.5050 hn        1 MOL      0.343563
    160 H78         1.3080    2.0740   -5.7790 hn        1 MOL      0.343563
    161 H79         2.2380    3.4060   -5.5580 hn        1 MOL      0.343563
    162 N14         5.0140    1.4360    0.2320 n         1 MOL     -0.036019
    163 C49         4.2420    1.6500    1.4180 c3        1 MOL     -0.041126
    164 C50         5.0230    1.2970    2.6860 c         1 MOL      0.480041
    165 O22         5.1110    2.0880    3.6060 o         1 MOL     -0.547170
    166 C51         2.8720    0.9220    1.3250 c3        1 MOL      0.074376
    167 C52         1.8060    1.6690    0.4930 c3        1 MOL     -0.240309
    168 C53         0.6240    0.8780   -0.0160 c         1 MOL      0.698611
    169 O23         0.7540   -0.3200   -0.4000 o         1 MOL     -0.651691
    170 O24        -0.4920    1.3650   -0.2620 o         1 MOL     -0.651691
    171 H80         4.9560    0.4720   -0.0750 hn        1 MOL      0.053678
    172 H81         4.0420    2.7260    1.4940 h1        1 MOL      0.052812
    173 H82         2.5760    0.6990    2.3480 hc        1 MOL      0.027546
    174 H83         3.0510   -0.0310    0.8320 hc        1 MOL      0.027546
    175 H84         2.3100    2.0040   -0.4160 hc        1 MOL      0.043945
    176 H85         1.4880    2.5200    1.0840 hc        1 MOL      0.043945
    177 N15         5.6990    0.1130    2.7850 n         1 MOL     -0.140137
    178 C54         6.7000   -0.3110    3.8410 c3        1 MOL     -0.326853
    179 H86         7.2430    0.5630    4.1990 h1        1 MOL      0.127092
    180 H87         6.1750   -0.7780    4.6750 h1        1 MOL      0.127092
    181 H88         7.4040   -1.0230    3.4110 h1        1 MOL      0.127092
    182 H89         5.5480   -0.5850    2.0620 hn        1 MOL      0.138430
    183 Ca1        -1.7770   -0.9560   -1.2920 Ca        1 MOL      1.805712
    184 O25        -0.4030   -0.6490   -3.6330 oh        1 MOL     -0.925346
    185 H90         0.0530   -1.0240   -4.3930 ho        1 MOL      0.421100
    186 H91        -0.8060    0.1450   -3.9800 ho        1 MOL      0.421100
    187 O26        -0.8180   -3.2900   -2.1170 oh        1 MOL     -0.925346
    188 H92        -0.6800   -3.5530   -3.0200 ho        1 MOL      0.421100
    189 H93        -1.3380   -3.9920   -1.7380 ho        1 MOL      0.421100
@<TRIPOS>BOND
     1    1    2 1   
     2    1    4 1   
     3    1    5 1   
     4    1    6 1   
     5    2    3 2   
     6    2    7 1   
     7    7    8 1   
     8    7   15 1   
     9    8    9 1   
    10    8   11 1   
    11    8   16 1   
    12    9   10 2   
    13    9   19 1   
    14   11   12 1   
    15   11   17 1   
    16   11   18 1   
    17   12   13 1   
    18   12   14 1   
    19   19   20 1   
    20   19   28 1   
    21   20   21 1   
    22   20   23 1   
    23   20   29 1   
    24   21   22 2   
    25   21   41 1   
    26   23   24 1   
    27   23   30 1   
    28   23   31 1   
    29   24   25 1   
    30   24   32 1   
    31   24   33 1   
    32   25   26 1   
    33   25   34 1   
    34   25   35 1   
    35   26   27 1   
    36   26   36 1   
    37   26   37 1   
    38   27   38 1   
    39   27   39 1   
    40   27   40 1   
    41   41   42 1   
    42   41   49 1   
    43   42   43 1   
    44   42   45 1   
    45   42   50 1   
    46   43   44 2   
    47   43   53 1   
    48   45   46 1   
    49   45   51 1   
    50   45   52 1   
    51   46   47 1   
    52   46   48 1   
    53   53   54 1   
    54   53   57 1   
    55   54   55 1   
    56   54   58 1   
    57   54   59 1   
    58   55   56 2   
    59   55   60 1   
    60   60   61 1   
    61   60   68 1   
    62   61   62 1   
    63   61   64 1   
    64   61   69 1   
    65   62   63 2   
    66   62   72 1   
    67   64   65 1   
    68   64   70 1   
    69   64   71 1   
    70   65   66 1   
    71   65   67 1   
    72   72   73 1   
    73   72   76 1   
    74   73   74 1   
    75   73   77 1   
    76   73   78 1   
    77   74   75 2   
    78   74   79 1   
    79   79   80 1   
    80   79   86 1   
    81   80   81 1   
    82   80   83 1   
    83   80   87 1   
    84   81   82 2   
    85   81   93 1   
    86   83   84 1   
    87   83   85 1   
    88   83   88 1   
    89   84   90 1   
    90   84   91 1   
    91   84   92 1   
    92   85   89 1   
    93   93   94 1   
    94   93  101 1   
    95   94   95 1   
    96   94   97 1   
    97   94  102 1   
    98   95   96 2   
    99   95  112 1   
   100   97   98 1   
   101   97   99 1   
   102   97  103 1   
   103   98  100 1   
   104   98  104 1   
   105   98  105 1   
   106   99  106 1   
   107   99  107 1   
   108   99  108 1   
   109  100  109 1   
   110  100  110 1   
   111  100  111 1   
   112  112  113 1   
   113  112  119 1   
   114  113  114 1   
   115  113  116 1   
   116  113  120 1   
   117  114  115 2   
   118  114  126 1   
   119  116  117 1   
   120  116  118 1   
   121  116  121 1   
   122  117  123 1   
   123  117  124 1   
   124  117  125 1   
   125  118  122 1   
   126  126  127 1   
   127  126  133 1   
   128  127  128 1   
   129  127  130 1   
   130  127  134 1   
   131  128  129 2   
   132  128  140 1   
   133  130  131 1   
   134  130  132 1   
   135  130  135 1   
   136  131  137 1   
   137  131  138 1   
   138  131  139 1   
   139  132  136 1   
   140  140  141 1   
   141  140  149 1   
   142  141  142 1   
   143  141  144 1   
   144  141  150 1   
   145  142  143 2   
   146  142  162 1   
   147  144  145 1   
   148  144  151 1   
   149  144  152 1   
   150  145  146 1   
   151  145  153 1   
   152  145  154 1   
   153  146  147 1   
   154  146  155 1   
   155  146  156 1   
   156  147  148 1   
   157  147  157 1   
   158  147  158 1   
   159  148  159 1   
   160  148  160 1   
   161  148  161 1   
   162  162  163 1   
   163  162  171 1   
   164  163  164 1   
   165  163  166 1   
   166  163  172 1   
   167  164  165 2   
   168  164  177 1   
   169  166  167 1   
   170  166  173 1   
   171  166  174 1   
   172  167  168 1   
   173  167  175 1   
   174  167  176 1   
   175  168  169 1   
   176  168  170 1   
   177  177  178 1   
   178  177  182 1   
   179  178  179 1   
   180  178  180 1   
   181  178  181 1   
   182  184  185 1   
   183  184  186 1   
   184  187  188 1   
   185  187  189 1   
@<TRIPOS>SUBSTRUCTURE
     1 MOL         1 TEMP              0 ****  ****    0 ROOT
