@<TRIPOS>MOLECULE
MOL
  175   173     1     0     0
SMALL
resp


@<TRIPOS>ATOM
      1 C1          0.4220    5.2610    4.7760 c3        1 MOL     -0.395029
      2 C2         -0.2080    5.0080    3.4420 c         1 MOL      0.749391
      3 O1          0.4620    4.9570    2.4330 o         1 MOL     -0.572406
      4 H1          1.0960    6.1140    4.7030 hc        1 MOL      0.093601
      5 H2         -0.3550    5.4740    5.5110 hc        1 MOL      0.093601
      6 H3          0.9840    4.3800    5.0860 hc        1 MOL      0.093601
      7 N1         -1.4830    4.6400    3.4600 n         1 MOL     -0.690273
      8 C3         -2.1580    3.9820    2.3380 c3        1 MOL      0.263644
      9 C4         -2.5150    4.9720    1.2260 c         1 MOL      0.600325
     10 O2         -3.0100    6.1240    1.5530 o         1 MOL     -0.605825
     11 C5         -3.4560    3.2650    2.8720 c3        1 MOL     -0.420862
     12 C6         -4.0800    2.3210    1.8320 c         1 MOL      0.903930
     13 O3         -5.2650    1.9560    1.9850 o         1 MOL     -0.728171
     14 O4         -3.5980    2.0040    0.7050 o         1 MOL     -0.728171
     15 H4         -1.9720    4.6950    4.3430 hn        1 MOL      0.347460
     16 H5         -1.5310    3.2250    1.8630 h1        1 MOL      0.064470
     17 H6         -4.1600    4.0540    3.1500 hc        1 MOL      0.091147
     18 H7         -3.1750    2.7340    3.7800 hc        1 MOL      0.091147
     19 N2         -2.4410    4.5560   -0.0140 n         1 MOL     -0.690879
     20 C7         -2.8860    5.4060   -1.1410 c3        1 MOL      0.553384
     21 C8         -3.8620    4.6860   -2.1250 c         1 MOL      0.305032
     22 O5         -4.0240    5.1250   -3.2640 o         1 MOL     -0.535299
     23 C9         -1.7110    6.1820   -1.8290 c3        1 MOL     -0.380348
     24 H8         -2.0600    3.6730   -0.3070 hn        1 MOL      0.380101
     25 H9         -3.5470    6.1580   -0.7080 h1        1 MOL     -0.034400
     26 H10        -2.1900    6.9810   -2.3940 hc        1 MOL      0.086349
     27 H11        -1.1740    6.6420   -0.9950 hc        1 MOL      0.086349
     28 H12        -1.0650    5.5160   -2.4110 hc        1 MOL      0.086349
     29 N3         -4.3130    3.4630   -1.7670 n         1 MOL     -0.302395
     30 C10        -5.3240    2.7910   -2.6570 c3        1 MOL     -0.032553
     31 C11        -6.3230    1.9390   -1.8750 c         1 MOL      0.381347
     32 O6         -7.3400    1.5990   -2.5180 o         1 MOL     -0.557508
     33 C12        -4.5560    2.0060   -3.7700 c3        1 MOL      0.261299
     34 C13        -3.4810    1.0530   -3.3250 c         1 MOL      0.450739
     35 O7         -2.4280    1.0330   -4.0960 o         1 MOL     -0.631837
     36 O8         -3.6260    0.5010   -2.2160 o         1 MOL     -0.631837
     37 H13        -3.9350    3.0840   -0.9080 hn        1 MOL      0.184246
     38 H14        -5.9180    3.5120   -3.2070 h1        1 MOL      0.092399
     39 H15        -4.2470    2.6210   -4.6200 hc        1 MOL     -0.054768
     40 H16        -5.3360    1.3910   -4.2220 hc        1 MOL     -0.054768
     41 N4         -6.2600    1.6580   -0.5770 n         1 MOL     -0.138998
     42 C14        -7.3200    0.9450    0.0630 c3        1 MOL     -0.195190
     43 C15        -7.4150   -0.5120   -0.3990 c         1 MOL      0.379070
     44 O9         -8.4150   -1.2410   -0.2000 o         1 MOL     -0.592138
     45 H17        -5.4640    1.9780   -0.0400 hn        1 MOL      0.158902
     46 H18        -8.2230    1.5150   -0.1800 h1        1 MOL      0.128098
     47 H19        -7.3200    0.9800    1.1550 h1        1 MOL      0.128098
     48 N5         -6.4030   -1.0060   -1.1280 n         1 MOL      0.004114
     49 C16        -6.3280   -2.2820   -1.7590 c3        1 MOL     -0.128745
     50 C17        -6.2080   -3.5250   -0.8760 c         1 MOL      0.451878
     51 O10        -5.9790   -4.6870   -1.3010 o         1 MOL     -0.529525
     52 C18        -5.1800   -2.2890   -2.8450 c3        1 MOL     -0.070499
     53 C19        -3.7750   -2.5150   -2.2990 c         1 MOL      0.494377
     54 N6         -2.8230   -2.5830   -3.1400 n         1 MOL     -0.562953
     55 O11        -3.4380   -2.4570   -1.1350 o         1 MOL     -0.504131
     56 H20        -5.6440   -0.3660   -1.3160 hn        1 MOL      0.109175
     57 H21        -7.1720   -2.4660   -2.4190 h1        1 MOL      0.116897
     58 H22        -5.2250   -1.4560   -3.5490 hc        1 MOL      0.043140
     59 H23        -5.3260   -3.1520   -3.4870 hc        1 MOL      0.043140
     60 H24        -3.0500   -2.6350   -4.1230 hn        1 MOL      0.315794
     61 H25        -1.8620   -2.4580   -2.8290 hn        1 MOL      0.315794
     62 N7         -6.3670   -3.3620    0.4110 n         1 MOL     -0.235939
     63 C20        -6.1630   -4.3350    1.5480 c3        1 MOL     -0.223216
     64 C21        -4.7760   -4.8630    1.8680 c         1 MOL      0.558070
     65 O12        -4.7100   -5.9020    2.4950 o         1 MOL     -0.550069
     66 H26        -6.5260   -2.4180    0.7420 hn        1 MOL      0.236699
     67 H27        -6.7750   -5.2310    1.4100 h1        1 MOL      0.110974
     68 H28        -6.4660   -3.8680    2.4880 h1        1 MOL      0.110974
     69 N8         -3.7270   -4.0970    1.4420 n         1 MOL     -0.220324
     70 C22        -2.3320   -4.4390    1.6820 c3        1 MOL     -0.197063
     71 C23        -1.3690   -3.2760    1.8260 c         1 MOL      0.664768
     72 O13        -1.5130   -2.2000    1.2910 o         1 MOL     -0.575110
     73 C24        -1.7500   -5.3380    0.5420 c3        1 MOL      0.687488
     74 C25        -2.5520   -6.5380    0.3080 c3        1 MOL     -0.494622
     75 O14        -1.7210   -4.7440   -0.7060 oh        1 MOL     -0.646123
     76 H29        -3.9820   -3.2200    1.0080 hn        1 MOL      0.116293
     77 H30        -2.1960   -4.9370    2.6310 h1        1 MOL      0.061594
     78 H31        -0.7750   -5.6250    0.9270 h1        1 MOL     -0.081026
     79 H32        -2.2060   -3.9110   -0.6820 ho        1 MOL      0.369058
     80 H33        -3.5530   -6.2690   -0.0220 hc        1 MOL      0.104790
     81 H34        -2.0210   -7.1420   -0.4250 hc        1 MOL      0.104790
     82 H35        -2.5600   -7.0370    1.2770 hc        1 MOL      0.104790
     83 N9         -0.1760   -3.5020    2.4440 n         1 MOL     -0.773773
     84 C26         0.9860   -2.5880    2.2330 c3        1 MOL      0.022844
     85 C27         1.6490   -2.9360    0.9580 c         1 MOL      0.481305
     86 O15         2.0930   -4.0600    0.6820 o         1 MOL     -0.582284
     87 C28         2.0050   -2.5560    3.4070 c3        1 MOL      0.302801
     88 C29         1.2340   -2.1770    4.7220 c3        1 MOL      0.072273
     89 C30         3.0980   -1.5680    3.2470 c3        1 MOL     -0.246867
     90 C31         2.1410   -2.0650    5.9780 c3        1 MOL     -0.258475
     91 H36        -0.0270   -4.3810    2.8960 hn        1 MOL      0.375945
     92 H37         0.6320   -1.5540    2.2030 h1        1 MOL      0.156394
     93 H38         2.3250   -3.5890    3.5560 hc        1 MOL     -0.049358
     94 H39         0.5940   -3.0320    4.9380 hc        1 MOL     -0.028887
     95 H40         0.7130   -1.2470    4.5020 hc        1 MOL     -0.028887
     96 H41         3.6950   -2.0190    2.4570 hc        1 MOL      0.022768
     97 H42         2.6410   -0.6650    2.8330 hc        1 MOL      0.022768
     98 H43         3.7350   -1.5220    4.1360 hc        1 MOL      0.022768
     99 H44         2.9870   -2.7460    6.0730 hc        1 MOL      0.062193
    100 H45         2.6030   -1.0840    5.9100 hc        1 MOL      0.062193
    101 H46         1.4410   -2.1010    6.8200 hc        1 MOL      0.062193
    102 N10         1.9180   -1.8920    0.1700 n         1 MOL     -0.088927
    103 C32         2.7410   -1.9450   -1.0150 c3        1 MOL      0.041591
    104 C33         4.1570   -1.4170   -0.7900 c         1 MOL      0.338399
    105 O16         4.3690   -0.5320    0.0770 o         1 MOL     -0.299933
    106 C34         1.9300   -1.1420   -2.0680 c3        1 MOL     -0.166936
    107 C35         0.4420   -1.5060   -2.3280 c         1 MOL      0.654966
    108 O17         0.2510   -2.2720   -3.3230 o         1 MOL     -0.666668
    109 O18        -0.4130   -1.0770   -1.5980 o         1 MOL     -0.666668
    110 H47         1.7110   -0.9650    0.5310 hn        1 MOL      0.082286
    111 H48         2.8770   -2.9770   -1.3360 h1        1 MOL      0.068728
    112 H49         2.4970   -1.2380   -2.9980 hc        1 MOL      0.037136
    113 H50         2.0730   -0.1070   -1.7690 hc        1 MOL      0.037136
    114 N11         5.1620   -1.9940   -1.4400 n         1 MOL     -0.519656
    115 C36         6.5590   -1.6240   -1.1300 c3        1 MOL      0.447860
    116 C37         6.8810   -0.0850   -1.0230 c         1 MOL      0.216440
    117 O19         7.4130    0.3500    0.0400 o         1 MOL     -0.459007
    118 C38         7.4950   -2.4120   -2.0730 c3        1 MOL     -0.391315
    119 C39         8.9590   -2.2100   -1.8010 ca        1 MOL      0.031205
    120 C40         9.8420   -1.2980   -2.4210 ca        1 MOL     -0.049838
    121 C41         9.5080   -2.8070   -0.6290 ca        1 MOL     -0.049838
    122 C42        11.1700   -1.1950   -2.0430 ca        1 MOL     -0.187120
    123 C43        10.8140   -2.7290   -0.2390 ca        1 MOL     -0.187120
    124 C44        11.6650   -1.8800   -0.9350 ca        1 MOL     -0.070487
    125 H51         5.0510   -2.7570   -2.0970 hn        1 MOL      0.305081
    126 H52         6.8010   -2.0180   -0.1540 h1        1 MOL      0.012712
    127 H53         7.3040   -2.0990   -3.1100 hc        1 MOL      0.120589
    128 H54         7.2750   -3.4440   -1.7900 hc        1 MOL      0.120589
    129 H55         9.5220   -0.6550   -3.2260 ha        1 MOL      0.084085
    130 H56         8.8340   -3.4850   -0.1100 ha        1 MOL      0.084085
    131 H57        11.8300   -0.5200   -2.5580 ha        1 MOL      0.123478
    132 H58        11.1250   -3.0530    0.7410 ha        1 MOL      0.123478
    133 H59        12.6010   -1.6790   -0.4420 ha        1 MOL      0.104471
    134 N12         6.4810    0.7730   -1.9840 n         1 MOL     -0.020796
    135 C45         6.5970    2.2210   -1.8010 c3        1 MOL      0.021842
    136 C46         5.8950    2.7410   -0.5630 c         1 MOL      0.240899
    137 O20         6.5070    3.6580    0.0170 o         1 MOL     -0.476751
    138 C47         5.9730    2.8310   -3.1000 c3        1 MOL     -0.004540
    139 C48         5.8580    1.7180   -4.1020 c3        1 MOL     -0.060716
    140 C49         5.7960    0.4680   -3.2340 c3        1 MOL     -0.045788
    141 H60         7.6400    2.5110   -1.6870 h1        1 MOL      0.073953
    142 H61         4.9270    3.1130   -2.9690 hc        1 MOL      0.029490
    143 H62         6.5630    3.6100   -3.5770 hc        1 MOL      0.029490
    144 H63         4.9640    1.8100   -4.7150 hc        1 MOL      0.041631
    145 H64         6.7680    1.7520   -4.7030 hc        1 MOL      0.041631
    146 H65         4.7890    0.1430   -2.9770 h1        1 MOL      0.030288
    147 H66         6.2040   -0.4020   -3.7450 h1        1 MOL      0.030288
    148 N13         4.6870    2.2740   -0.1670 n         1 MOL     -0.188627
    149 C50         4.0570    2.6590    1.0920 c3        1 MOL     -0.096465
    150 C51         4.8680    2.2830    2.3240 c         1 MOL      0.373944
    151 O21         4.8720    3.0360    3.3360 o         1 MOL     -0.567497
    152 C52         2.6100    2.0520    1.2560 c3        1 MOL     -0.029756
    153 C53         1.6030    2.6370    0.2540 c3        1 MOL     -0.294108
    154 C54         0.2850    1.7700    0.2900 c         1 MOL      0.730435
    155 O22        -0.7050    2.1660   -0.3620 o         1 MOL     -0.719556
    156 O23         0.2070    0.6160    0.8800 o         1 MOL     -0.719556
    157 H67         4.4090    1.4500   -0.6900 hn        1 MOL      0.242440
    158 H68         3.9500    3.7450    1.1270 h1        1 MOL      0.130251
    159 H69         2.2330    2.2390    2.2620 hc        1 MOL      0.071878
    160 H70         2.7900    1.0000    1.0560 hc        1 MOL      0.071878
    161 H71         2.0650    2.5070   -0.7250 hc        1 MOL      0.097845
    162 H72         1.3620    3.6500    0.5590 hc        1 MOL      0.097845
    163 N14         5.5490    1.1620    2.2820 n         1 MOL      0.062593
    164 C55         6.3740    0.6600    3.3600 c3        1 MOL     -0.243256
    165 H73         6.7890    1.4970    3.9210 h1        1 MOL      0.085317
    166 H74         5.7680    0.0440    4.0250 h1        1 MOL      0.085317
    167 H75         7.1860    0.0610    2.9490 h1        1 MOL      0.085317
    168 H76         5.5190    0.5420    1.4840 hn        1 MOL      0.060426
    169 Ca1        -2.1640    0.0130   -0.1900 Ca        1 MOL      1.698704
    170 O24        -1.7990    0.5770    2.6090 oh        1 MOL     -0.783452
    171 H77        -1.9020    0.7170    3.5460 ho        1 MOL      0.371557
    172 H78        -0.8560    0.5900    2.4590 ho        1 MOL      0.371557
    173 O25        -4.4550   -0.6390    1.3580 oh        1 MOL     -0.783452
    174 H79        -4.7370   -1.2080    2.0720 ho        1 MOL      0.371557
    175 H80        -4.8930    0.1980    1.5260 ho        1 MOL      0.371557
@<TRIPOS>BOND
     1    1    2 1   
     2    1    4 1   
     3    1    5 1   
     4    1    6 1   
     5    2    3 2   
     6    2    7 1   
     7    7    8 1   
     8    7   15 1   
     9    8    9 1   
    10    8   11 1   
    11    8   16 1   
    12    9   10 2   
    13    9   19 1   
    14   11   12 1   
    15   11   17 1   
    16   11   18 1   
    17   12   13 1   
    18   12   14 1   
    19   19   20 1   
    20   19   24 1   
    21   20   21 1   
    22   20   23 1   
    23   20   25 1   
    24   21   22 2   
    25   21   29 1   
    26   23   26 1   
    27   23   27 1   
    28   23   28 1   
    29   29   30 1   
    30   29   37 1   
    31   30   31 1   
    32   30   33 1   
    33   30   38 1   
    34   31   32 2   
    35   31   41 1   
    36   33   34 1   
    37   33   39 1   
    38   33   40 1   
    39   34   35 1   
    40   34   36 1   
    41   41   42 1   
    42   41   45 1   
    43   42   43 1   
    44   42   46 1   
    45   42   47 1   
    46   43   44 2   
    47   43   48 1   
    48   48   49 1   
    49   48   56 1   
    50   49   50 1   
    51   49   52 1   
    52   49   57 1   
    53   50   51 2   
    54   50   62 1   
    55   52   53 1   
    56   52   58 1   
    57   52   59 1   
    58   53   54 1   
    59   53   55 2   
    60   54   60 1   
    61   54   61 1   
    62   62   63 1   
    63   62   66 1   
    64   63   64 1   
    65   63   67 1   
    66   63   68 1   
    67   64   65 2   
    68   64   69 1   
    69   69   70 1   
    70   69   76 1   
    71   70   71 1   
    72   70   73 1   
    73   70   77 1   
    74   71   72 2   
    75   71   83 1   
    76   73   74 1   
    77   73   75 1   
    78   73   78 1   
    79   74   80 1   
    80   74   81 1   
    81   74   82 1   
    82   75   79 1   
    83   83   84 1   
    84   83   91 1   
    85   84   85 1   
    86   84   87 1   
    87   84   92 1   
    88   85   86 2   
    89   85  102 1   
    90   87   88 1   
    91   87   89 1   
    92   87   93 1   
    93   88   90 1   
    94   88   94 1   
    95   88   95 1   
    96   89   96 1   
    97   89   97 1   
    98   89   98 1   
    99   90   99 1   
   100   90  100 1   
   101   90  101 1   
   102  102  103 1   
   103  102  110 1   
   104  103  104 1   
   105  103  106 1   
   106  103  111 1   
   107  104  105 2   
   108  104  114 1   
   109  106  107 1   
   110  106  112 1   
   111  106  113 1   
   112  107  108 1   
   113  107  109 1   
   114  114  115 1   
   115  114  125 1   
   116  115  116 1   
   117  115  118 1   
   118  115  126 1   
   119  116  117 2   
   120  116  134 1   
   121  118  119 1   
   122  118  127 1   
   123  118  128 1   
   124  119  120 ar  
   125  119  121 ar  
   126  120  122 ar  
   127  120  129 1   
   128  121  123 ar  
   129  121  130 1   
   130  122  124 ar  
   131  122  131 1   
   132  123  124 ar  
   133  123  132 1   
   134  124  133 1   
   135  134  135 1   
   136  134  140 1   
   137  135  136 1   
   138  135  138 1   
   139  135  141 1   
   140  136  137 2   
   141  136  148 1   
   142  138  139 1   
   143  138  142 1   
   144  138  143 1   
   145  139  140 1   
   146  139  144 1   
   147  139  145 1   
   148  140  146 1   
   149  140  147 1   
   150  148  149 1   
   151  148  157 1   
   152  149  150 1   
   153  149  152 1   
   154  149  158 1   
   155  150  151 2   
   156  150  163 1   
   157  152  153 1   
   158  152  159 1   
   159  152  160 1   
   160  153  154 1   
   161  153  161 1   
   162  153  162 1   
   163  154  155 1   
   164  154  156 1   
   165  163  164 1   
   166  163  168 1   
   167  164  165 1   
   168  164  166 1   
   169  164  167 1   
   170  170  171 1   
   171  170  172 1   
   172  173  174 1   
   173  173  175 1   
@<TRIPOS>SUBSTRUCTURE
     1 MOL         1 TEMP              0 ****  ****    0 ROOT
