@<TRIPOS>MOLECULE
MOL
  189   185     1     0     0
SMALL
resp


@<TRIPOS>ATOM
      1 C1          0.3550   -3.5120    6.1550 c3        1 MOL     -0.552280
      2 C2          0.7590   -3.0420    4.7440 c         1 MOL      0.693698
      3 O1          0.6390   -1.8740    4.4030 o         1 MOL     -0.553802
      4 H1         -0.6920   -3.2670    6.3330 hc        1 MOL      0.150453
      5 H2          0.4930   -4.5900    6.2330 hc        1 MOL      0.150453
      6 H3          0.9750   -3.0110    6.8980 hc        1 MOL      0.150453
      7 N1          1.1730   -3.9610    3.8080 n         1 MOL     -0.495345
      8 C3          1.8300   -3.7010    2.5280 c3        1 MOL      0.142214
      9 C4          1.7530   -4.8580    1.5200 c         1 MOL      0.478856
     10 O2          1.7860   -5.9720    1.9740 o         1 MOL     -0.584173
     11 C5          3.3480   -3.4050    2.7800 c3        1 MOL     -0.336181
     12 C6          3.9910   -2.6460    1.6630 c         1 MOL      0.786276
     13 O3          3.3950   -2.2750    0.6470 o         1 MOL     -0.699208
     14 O4          5.1640   -2.3280    1.8310 o         1 MOL     -0.699208
     15 H4          1.1790   -4.9550    4.0160 hn        1 MOL      0.273678
     16 H5          1.2880   -2.8640    2.0960 h1        1 MOL     -0.016244
     17 H6          3.9140   -4.3170    2.9350 hc        1 MOL      0.086456
     18 H7          3.4410   -2.8580    3.7180 hc        1 MOL      0.086456
     19 N2          1.5330   -4.6260    0.2450 n         1 MOL     -0.084951
     20 C7          1.4270   -5.6470   -0.7520 c3        1 MOL     -0.291566
     21 C8          2.2710   -5.2130   -2.0420 c         1 MOL      0.566789
     22 O5          2.1770   -5.8470   -3.0790 o         1 MOL     -0.554445
     23 C9         -0.0130   -6.0490   -1.0800 c3        1 MOL      0.293348
     24 C10        -0.7990   -5.0010   -1.9390 c3        1 MOL     -0.267653
     25 C11        -0.8190   -6.2830    0.1820 c3        1 MOL     -0.090580
     26 C12        -2.1410   -5.4510   -2.4370 c3        1 MOL     -0.022219
     27 H8          1.4800   -3.6340    0.0850 hn        1 MOL      0.183917
     28 H9          1.9140   -6.5540   -0.4070 h1        1 MOL      0.113265
     29 H10        -0.0040   -6.9850   -1.6450 hc        1 MOL     -0.047962
     30 H11        -0.1660   -4.8390   -2.8090 hc        1 MOL      0.119942
     31 H12        -0.9800   -4.1470   -1.2730 hc        1 MOL      0.119942
     32 H13        -1.7740   -6.7550   -0.0230 hc        1 MOL      0.003113
     33 H14        -0.3190   -7.0250    0.8180 hc        1 MOL      0.003113
     34 H15        -1.0160   -5.3640    0.7350 hc        1 MOL      0.003113
     35 H16        -2.8170   -5.7180   -1.6310 hc        1 MOL      0.014481
     36 H17        -2.5660   -4.6300   -3.0160 hc        1 MOL      0.014481
     37 H18        -2.0100   -6.3640   -3.0220 hc        1 MOL      0.014481
     38 N3          3.1100   -4.1500   -1.9400 n         1 MOL     -0.441193
     39 C13         3.9680   -3.6900   -3.0510 c3        1 MOL      0.075139
     40 C14         5.4450   -3.1520   -2.6870 c         1 MOL      0.437575
     41 O6          6.3290   -3.1660   -3.4980 o         1 MOL     -0.530100
     42 C15         3.2010   -2.7880   -3.9660 c3        1 MOL     -0.175546
     43 C16         2.7850   -1.4540   -3.3240 c         1 MOL      0.733008
     44 O7          3.2400   -1.1160   -2.2160 o         1 MOL     -0.688798
     45 O8          2.0070   -0.6870   -3.8920 o         1 MOL     -0.688798
     46 H19         3.1570   -3.6740   -1.0530 hn        1 MOL      0.186249
     47 H20         4.1710   -4.5920   -3.6400 h1        1 MOL      0.064829
     48 H21         2.2210   -3.2510   -4.1280 hc        1 MOL      0.051712
     49 H22         3.7040   -2.6600   -4.9220 hc        1 MOL      0.051712
     50 N4          5.6800   -2.7600   -1.4290 n         1 MOL     -0.249916
     51 C17         6.9820   -2.2700   -1.0620 c3        1 MOL     -0.230018
     52 C18         7.1910   -0.7560   -1.4370 c         1 MOL      0.452956
     53 O9          8.3360   -0.2550   -1.4080 o         1 MOL     -0.612743
     54 H23         4.9230   -2.6530   -0.7720 hn        1 MOL      0.208770
     55 H24         7.8370   -2.8350   -1.4330 h1        1 MOL      0.117742
     56 H25         6.9580   -2.2460    0.0280 h1        1 MOL      0.117742
     57 N5          6.1430   -0.0750   -1.8820 n         1 MOL     -0.030019
     58 C19         6.2210    1.2380   -2.4390 c3        1 MOL     -0.040298
     59 C20         6.6240    2.4060   -1.4600 c         1 MOL      0.349565
     60 O10         7.0220    3.4960   -1.9300 o         1 MOL     -0.548421
     61 C21         5.0670    1.7410   -3.2610 c3        1 MOL     -0.117344
     62 C22         3.8630    2.1610   -2.3780 c         1 MOL      0.737527
     63 O11         3.7420    1.6370   -1.2270 o         1 MOL     -0.689244
     64 O12         3.0100    2.9350   -2.9040 o         1 MOL     -0.689244
     65 H26         5.2650   -0.5770   -1.9620 hn        1 MOL      0.132979
     66 H27         6.9620    1.1390   -3.2380 h1        1 MOL      0.066610
     67 H28         4.8110    0.9700   -3.9780 hc        1 MOL      0.032885
     68 H29         5.2900    2.6400   -3.8320 hc        1 MOL      0.032885
     69 N6          6.5150    2.1460   -0.1800 n         1 MOL     -0.058852
     70 C23         6.8860    3.0550    0.8960 c3        1 MOL     -0.274366
     71 C24         5.7500    3.7830    1.6190 c         1 MOL      0.506359
     72 O13         5.9120    4.4740    2.6480 o         1 MOL     -0.584566
     73 H30         6.1350    1.2460    0.0710 hn        1 MOL      0.157164
     74 H31         7.5020    3.8750    0.5510 h1        1 MOL      0.113895
     75 H32         7.4040    2.4390    1.6230 h1        1 MOL      0.113895
     76 N7          4.4800    3.5280    1.1880 n         1 MOL     -0.217987
     77 C25         3.2370    4.0880    1.7150 c3        1 MOL     -0.059091
     78 C26         2.0070    3.1010    1.7430 c         1 MOL      0.488867
     79 O14         1.7140    2.4340    0.7430 o         1 MOL     -0.585777
     80 C27         2.7990    5.3810    0.9220 c3        1 MOL      0.011602
     81 C28         3.9660    6.3240    0.5670 c3        1 MOL     -0.314438
     82 C29         3.5840    7.6920   -0.0360 c         1 MOL      0.597304
     83 N8          4.4320    8.1870   -0.9240 n         1 MOL     -0.683668
     84 O15         2.5060    8.2850    0.1450 o         1 MOL     -0.559963
     85 H33         4.3450    2.8150    0.4880 hn        1 MOL      0.175803
     86 H34         3.4730    4.4470    2.7150 h1        1 MOL      0.040558
     87 H35         1.9680    5.8620    1.4420 hc        1 MOL      0.075935
     88 H36         2.5220    5.0430   -0.0740 hc        1 MOL      0.075935
     89 H37         4.5580    5.8150   -0.1950 hc        1 MOL      0.117913
     90 H38         4.6190    6.5170    1.4230 hc        1 MOL      0.117913
     91 H39         5.3070    7.7290   -1.1320 hn        1 MOL      0.315944
     92 H40         4.3170    9.0880   -1.3470 hn        1 MOL      0.315944
     93 N9          1.2370    3.0910    2.7840 n         1 MOL     -0.362741
     94 C30        -0.0310    2.3930    2.7970 c3        1 MOL     -0.119914
     95 C31        -1.0900    2.9570    1.8230 c         1 MOL      0.564463
     96 O16        -1.3350    4.2200    1.9210 o         1 MOL     -0.616274
     97 C32        -0.6880    2.3230    4.2260 c3        1 MOL      0.218874
     98 C33        -2.2330    2.2400    4.4500 c3        1 MOL     -0.271451
     99 C34        -0.0150    1.1180    4.9110 c3        1 MOL     -0.271451
    100 H41         1.5060    3.6290    3.6040 hn        1 MOL      0.263840
    101 H42         0.1460    1.3400    2.5540 h1        1 MOL      0.138533
    102 H43        -0.3770    3.1590    4.8430 hc        1 MOL     -0.023532
    103 H44        -2.4140    1.9260    5.4690 hc        1 MOL      0.053804
    104 H45        -2.6080    3.2450    4.2510 hc        1 MOL      0.053804
    105 H46        -2.5790    1.4950    3.7270 hc        1 MOL      0.053804
    106 H47         1.0590    1.1580    4.7420 hc        1 MOL      0.053804
    107 H48        -0.3200    1.2150    5.9550 hc        1 MOL      0.053804
    108 H49        -0.4560    0.2760    4.3890 hc        1 MOL      0.053804
    109 N10        -1.5960    2.1580    0.9130 n         1 MOL     -0.177939
    110 C35        -2.7440    2.3720   -0.0440 c3        1 MOL      0.007609
    111 C36        -4.0590    2.1420    0.7150 c         1 MOL      0.184802
    112 O17        -4.1670    1.5940    1.7870 o         1 MOL     -0.318291
    113 C37        -2.5760    1.4830   -1.2900 c3        1 MOL     -0.094268
    114 C38        -3.5060    1.8680   -2.4310 c         1 MOL      0.588530
    115 N11        -3.2640    2.9580   -3.0870 n         1 MOL     -0.752154
    116 O18        -4.5040    1.1870   -2.6640 o         1 MOL     -0.465056
    117 H50        -1.1820    1.2390    0.8280 hn        1 MOL      0.173893
    118 H51        -2.7060    3.4030   -0.3970 h1        1 MOL      0.032067
    119 H52        -2.7490    0.4300   -1.0270 hc        1 MOL      0.079925
    120 H53        -1.5550    1.6210   -1.6460 hc        1 MOL      0.079925
    121 H54        -2.4740    3.5430   -2.8490 hn        1 MOL      0.362576
    122 H55        -3.9730    3.2320   -3.7530 hn        1 MOL      0.362576
    123 N12        -5.1570    2.6320    0.1190 n         1 MOL     -0.087130
    124 C39        -6.5760    2.4840    0.6030 c3        1 MOL     -0.072279
    125 C40        -7.0450    1.0550    0.5950 c         1 MOL      0.528681
    126 O19        -7.9890    0.7790    1.3330 o         1 MOL     -0.594983
    127 C41        -7.4130    3.4030   -0.2130 c3        1 MOL     -0.076914
    128 C42        -7.3890    3.1560   -1.7360 ca        1 MOL      0.027287
    129 C43        -8.1420    2.1700   -2.3500 ca        1 MOL     -0.151120
    130 C44        -6.6540    4.0210   -2.5910 ca        1 MOL     -0.151120
    131 C45        -8.2580    1.9990   -3.7310 ca        1 MOL     -0.274570
    132 C46        -6.6850    3.7720   -3.9680 ca        1 MOL     -0.274570
    133 C47        -7.4130    2.7490   -4.5830 ca        1 MOL      0.339071
    134 O20        -7.2540    2.5410   -5.9550 oh        1 MOL     -0.526980
    135 H56        -4.9820    3.2410   -0.6620 hn        1 MOL      0.129611
    136 H57        -6.4960    2.9330    1.5940 h1        1 MOL      0.082702
    137 H58        -7.1860    4.4600   -0.1040 hc        1 MOL      0.050776
    138 H59        -8.4470    3.3070    0.1120 hc        1 MOL      0.050776
    139 H60        -8.6610    1.4780   -1.7030 ha        1 MOL      0.131308
    140 H61        -6.1550    4.9050   -2.2240 ha        1 MOL      0.131308
    141 H62        -8.7730    1.1870   -4.2190 ha        1 MOL      0.141379
    142 H63        -6.2170    4.4700   -4.6480 ha        1 MOL      0.141379
    143 H64        -7.8100    1.8000   -6.2060 ho        1 MOL      0.407490
    144 N13        -6.3450    0.1760   -0.0520 n         1 MOL     -0.226697
    145 C48        -6.6480   -1.3040    0.0390 c3        1 MOL     -0.000017
    146 C49        -5.8030   -2.0410    1.1350 c         1 MOL      0.340781
    147 O21        -6.1820   -3.0700    1.6990 o         1 MOL     -0.509324
    148 C50        -6.4800   -2.0240   -1.3320 c3        1 MOL     -0.092351
    149 C51        -5.0610   -2.3400   -1.6960 c3        1 MOL     -0.081742
    150 C52        -5.0620   -3.1190   -3.0600 c         1 MOL      0.632153
    151 O22        -5.5830   -4.2460   -3.2090 o         1 MOL     -0.714624
    152 O23        -4.4430   -2.5730   -4.0470 o         1 MOL     -0.714624
    153 H65        -5.6590    0.5740   -0.6770 hn        1 MOL      0.232055
    154 H66        -7.7000   -1.3980    0.2910 h1        1 MOL      0.078246
    155 H67        -6.9920   -1.4140   -2.0640 hc        1 MOL      0.041095
    156 H68        -7.0680   -2.9320   -1.1990 hc        1 MOL      0.041095
    157 H69        -4.6410   -2.9760   -0.9220 hc        1 MOL      0.016145
    158 H70        -4.4300   -1.4530   -1.8080 hc        1 MOL      0.016145
    159 N14        -4.7120   -1.4210    1.4720 n         1 MOL     -0.031403
    160 C53        -3.7880   -1.9080    2.4400 c3        1 MOL     -0.189410
    161 C54        -4.1890   -1.4570    3.8880 c         1 MOL      0.417136
    162 O24        -3.9810   -2.2490    4.8090 o         1 MOL     -0.568669
    163 C55        -2.2880   -1.4390    2.1880 c3        1 MOL      0.097037
    164 C56        -1.7960   -1.9220    0.8640 c3        1 MOL     -0.227155
    165 C57        -0.3970   -1.2860    0.4610 c         1 MOL      0.598301
    166 O25        -0.1800   -0.1070    0.6710 o         1 MOL     -0.625519
    167 O26         0.4350   -1.9680   -0.1920 o         1 MOL     -0.625519
    168 H71        -4.6000   -0.5170    1.0270 hn        1 MOL      0.024812
    169 H72        -3.8340   -2.9940    2.4210 h1        1 MOL      0.127231
    170 H73        -1.6420   -1.7490    3.0130 hc        1 MOL      0.058515
    171 H74        -2.3150   -0.3470    2.2730 hc        1 MOL      0.058515
    172 H75        -2.5430   -1.6850    0.1100 hc        1 MOL      0.076502
    173 H76        -1.8010   -3.0130    0.9280 hc        1 MOL      0.076502
    174 N15        -4.8100   -0.3150    3.9730 n         1 MOL     -0.045829
    175 C58        -5.5190    0.2300    5.1560 c3        1 MOL     -0.182181
    176 H77        -6.5210    0.5480    4.8650 h1        1 MOL      0.075782
    177 H78        -5.5920   -0.5390    5.9240 h1        1 MOL      0.075782
    178 H79        -4.9680    1.0850    5.5490 h1        1 MOL      0.075782
    179 H80        -4.8260    0.2140    3.1090 hn        1 MOL      0.094527
    180 Ca1         2.3670   -0.1270   -0.0580 Ca        1 MOL      1.635006
    181 O27         4.6820    0.4000    1.4330 oh        1 MOL     -0.813577
    182 H81         4.9300   -0.5220    1.4330 ho        1 MOL      0.394915
    183 H82         5.1040    0.7670    2.2160 ho        1 MOL      0.394915
    184 O28         1.9900   -0.4120    2.6590 oh        1 MOL     -0.813577
    185 H83         2.6080   -0.0330    3.2780 ho        1 MOL      0.394915
    186 H84         1.5010   -1.0540    3.1700 ho        1 MOL      0.394915
    187 O29         0.9880    1.1190   -2.0830 oh        1 MOL     -0.813577
    188 H85         1.5960    1.8560   -2.1050 ho        1 MOL      0.394915
    189 H86         1.1170    0.6720   -2.9240 ho        1 MOL      0.394915
@<TRIPOS>BOND
     1    1    2 1   
     2    1    4 1   
     3    1    5 1   
     4    1    6 1   
     5    2    3 2   
     6    2    7 1   
     7    7    8 1   
     8    7   15 1   
     9    8    9 1   
    10    8   11 1   
    11    8   16 1   
    12    9   10 2   
    13    9   19 1   
    14   11   12 1   
    15   11   17 1   
    16   11   18 1   
    17   12   13 1   
    18   12   14 1   
    19   19   20 1   
    20   19   27 1   
    21   20   21 1   
    22   20   23 1   
    23   20   28 1   
    24   21   22 2   
    25   21   38 1   
    26   23   24 1   
    27   23   25 1   
    28   23   29 1   
    29   24   26 1   
    30   24   30 1   
    31   24   31 1   
    32   25   32 1   
    33   25   33 1   
    34   25   34 1   
    35   26   35 1   
    36   26   36 1   
    37   26   37 1   
    38   38   39 1   
    39   38   46 1   
    40   39   40 1   
    41   39   42 1   
    42   39   47 1   
    43   40   41 2   
    44   40   50 1   
    45   42   43 1   
    46   42   48 1   
    47   42   49 1   
    48   43   44 1   
    49   43   45 1   
    50   50   51 1   
    51   50   54 1   
    52   51   52 1   
    53   51   55 1   
    54   51   56 1   
    55   52   53 2   
    56   52   57 1   
    57   57   58 1   
    58   57   65 1   
    59   58   59 1   
    60   58   61 1   
    61   58   66 1   
    62   59   60 2   
    63   59   69 1   
    64   61   62 1   
    65   61   67 1   
    66   61   68 1   
    67   62   63 1   
    68   62   64 1   
    69   69   70 1   
    70   69   73 1   
    71   70   71 1   
    72   70   74 1   
    73   70   75 1   
    74   71   72 2   
    75   71   76 1   
    76   76   77 1   
    77   76   85 1   
    78   77   78 1   
    79   77   80 1   
    80   77   86 1   
    81   78   79 2   
    82   78   93 1   
    83   80   81 1   
    84   80   87 1   
    85   80   88 1   
    86   81   82 1   
    87   81   89 1   
    88   81   90 1   
    89   82   83 1   
    90   82   84 2   
    91   83   91 1   
    92   83   92 1   
    93   93   94 1   
    94   93  100 1   
    95   94   95 1   
    96   94   97 1   
    97   94  101 1   
    98   95   96 2   
    99   95  109 1   
   100   97   98 1   
   101   97   99 1   
   102   97  102 1   
   103   98  103 1   
   104   98  104 1   
   105   98  105 1   
   106   99  106 1   
   107   99  107 1   
   108   99  108 1   
   109  109  110 1   
   110  109  117 1   
   111  110  111 1   
   112  110  113 1   
   113  110  118 1   
   114  111  112 2   
   115  111  123 1   
   116  113  114 1   
   117  113  119 1   
   118  113  120 1   
   119  114  115 1   
   120  114  116 2   
   121  115  121 1   
   122  115  122 1   
   123  123  124 1   
   124  123  135 1   
   125  124  125 1   
   126  124  127 1   
   127  124  136 1   
   128  125  126 2   
   129  125  144 1   
   130  127  128 1   
   131  127  137 1   
   132  127  138 1   
   133  128  129 ar  
   134  128  130 ar  
   135  129  131 ar  
   136  129  139 1   
   137  130  132 ar  
   138  130  140 1   
   139  131  133 ar  
   140  131  141 1   
   141  132  133 ar  
   142  132  142 1   
   143  133  134 1   
   144  134  143 1   
   145  144  145 1   
   146  144  153 1   
   147  145  146 1   
   148  145  148 1   
   149  145  154 1   
   150  146  147 2   
   151  146  159 1   
   152  148  149 1   
   153  148  155 1   
   154  148  156 1   
   155  149  150 1   
   156  149  157 1   
   157  149  158 1   
   158  150  151 1   
   159  150  152 1   
   160  159  160 1   
   161  159  168 1   
   162  160  161 1   
   163  160  163 1   
   164  160  169 1   
   165  161  162 2   
   166  161  174 1   
   167  163  164 1   
   168  163  170 1   
   169  163  171 1   
   170  164  165 1   
   171  164  172 1   
   172  164  173 1   
   173  165  166 1   
   174  165  167 1   
   175  174  175 1   
   176  174  179 1   
   177  175  176 1   
   178  175  177 1   
   179  175  178 1   
   180  181  182 1   
   181  181  183 1   
   182  184  185 1   
   183  184  186 1   
   184  187  188 1   
   185  187  189 1   
@<TRIPOS>SUBSTRUCTURE
     1 MOL         1 TEMP              0 ****  ****    0 ROOT
