@<TRIPOS>MOLECULE
MOL
  179   176     1     0     0
SMALL
resp


@<TRIPOS>ATOM
      1 C1          1.1130    3.5550    5.2200 c3        1 MOL     -0.297910
      2 C2          0.5370    2.9850    3.9490 c         1 MOL      0.617206
      3 O1          1.0960    3.1830    2.8830 o         1 MOL     -0.542135
      4 H1          0.3020    3.8550    5.8840 hc        1 MOL      0.084805
      5 H2          1.7250    2.8000    5.7140 hc        1 MOL      0.084805
      6 H3          1.7280    4.4230    4.9840 hc        1 MOL      0.084805
      7 N1         -0.7290    2.5400    3.9730 n         1 MOL     -0.478381
      8 C3         -1.4900    2.1330    2.7970 c3        1 MOL      0.080109
      9 C4         -2.1260    3.3720    2.0560 c         1 MOL      0.448097
     10 O2         -3.3290    3.4850    1.9790 o         1 MOL     -0.428913
     11 C5         -2.5440    1.0570    3.2630 c3        1 MOL     -0.139501
     12 C6         -3.3770    0.5390    2.0020 c         1 MOL      0.749460
     13 O3         -4.5850    0.0770    2.1370 o         1 MOL     -0.717989
     14 O4         -2.8120    0.5660    0.8320 o         1 MOL     -0.717989
     15 H4         -1.2320    2.4030    4.8310 hn        1 MOL      0.301605
     16 H5         -0.8090    1.6350    2.1060 h1        1 MOL      0.053271
     17 H6         -3.2760    1.5680    3.8950 hc        1 MOL      0.037053
     18 H7         -2.0540    0.2480    3.7840 hc        1 MOL      0.037053
     19 N2         -1.2790    4.3030    1.6260 n         1 MOL     -0.404560
     20 C7         -1.6970    5.5770    1.0240 c3        1 MOL     -0.027398
     21 C8         -2.7710    5.5770   -0.0830 c         1 MOL      0.456403
     22 O5         -3.2170    6.6510   -0.5040 o         1 MOL     -0.558090
     23 C9         -0.4920    6.4390    0.5530 c3        1 MOL     -0.172271
     24 C10         0.3960    5.9120   -0.5800 c3        1 MOL      0.284011
     25 C11         1.4750    6.8500   -1.0310 c3        1 MOL     -0.216306
     26 C12         2.4400    6.3400   -2.0750 c3        1 MOL      0.017318
     27 N3          1.7940    5.9920   -3.3630 n4        1 MOL     -0.372767
     28 H8         -0.3460    3.9180    1.5670 hn        1 MOL      0.336212
     29 H9         -2.1900    6.1750    1.7880 h1        1 MOL      0.112498
     30 H10         0.1240    6.6040    1.4400 hc        1 MOL      0.063723
     31 H11        -0.8860    7.4160    0.3040 hc        1 MOL      0.063723
     32 H12        -0.2210    5.7030   -1.4540 hc        1 MOL     -0.053220
     33 H13         0.8430    4.9920   -0.2020 hc        1 MOL     -0.053220
     34 H14         2.1320    7.1930   -0.2350 hc        1 MOL      0.077660
     35 H15         1.0520    7.7530   -1.4690 hc        1 MOL      0.077660
     36 H16         2.8130    5.4070   -1.6530 hx        1 MOL      0.107828
     37 H17         3.3390    6.9360   -2.1760 hx        1 MOL      0.107828
     38 H18         1.0820    5.2800   -3.2650 hn        1 MOL      0.330676
     39 H19         1.2080    6.7580   -3.6700 hn        1 MOL      0.330676
     40 H20         2.4210    5.7270   -4.1010 hn        1 MOL      0.330676
     41 N4         -3.1250    4.4510   -0.6910 n         1 MOL     -0.250176
     42 C13        -4.1830    4.3980   -1.7660 c3        1 MOL      0.105935
     43 C14        -5.4460    3.6120   -1.3900 c         1 MOL      0.410897
     44 O6         -6.3870    3.5730   -2.1500 o         1 MOL     -0.523758
     45 C15        -3.4800    4.0040   -3.0940 c3        1 MOL     -0.222870
     46 C16        -2.6030    2.7810   -3.0930 c         1 MOL      0.804944
     47 O7         -2.5950    1.9680   -2.1220 o         1 MOL     -0.723242
     48 O8         -1.9070    2.6360   -4.1370 o         1 MOL     -0.723242
     49 H21        -2.8270    3.5540   -0.3480 hn        1 MOL      0.201506
     50 H22        -4.6230    5.3780   -1.9400 h1        1 MOL      0.081243
     51 H23        -2.7510    4.7920   -3.2850 hc        1 MOL      0.048953
     52 H24        -4.2150    3.8960   -3.8940 hc        1 MOL      0.048953
     53 N5         -5.3630    2.9140   -0.2440 n         1 MOL     -0.002760
     54 C17        -6.4800    2.2360    0.3720 c3        1 MOL     -0.322771
     55 C18        -6.8860    0.8640   -0.1170 c         1 MOL      0.602389
     56 O9         -8.0140    0.4550    0.0600 o         1 MOL     -0.570551
     57 H25        -4.4720    2.9460    0.2220 hn        1 MOL     -0.042081
     58 H26        -7.3420    2.9090    0.3110 h1        1 MOL      0.140394
     59 H27        -6.2260    2.0980    1.4180 h1        1 MOL      0.140394
     60 N6         -5.9760    0.1670   -0.7660 n         1 MOL     -0.233707
     61 C19        -6.3440   -1.1270   -1.4160 c3        1 MOL     -0.058020
     62 C20        -6.4770   -2.2930   -0.3930 c         1 MOL      0.434345
     63 O10        -7.1360   -3.3130   -0.7090 o         1 MOL     -0.535541
     64 C21        -5.5350   -1.5320   -2.6540 c3        1 MOL     -0.246767
     65 C22        -4.1420   -1.9330   -2.2130 c         1 MOL      0.630948
     66 N7         -3.9830   -3.0370   -1.5670 n         1 MOL     -0.672718
     67 O11        -3.2150   -1.1650   -2.4660 o         1 MOL     -0.638069
     68 H28        -5.0290    0.5060   -0.8140 hn        1 MOL      0.153643
     69 H29        -7.3520   -0.9740   -1.7810 h1        1 MOL      0.129385
     70 H30        -5.5140   -0.6800   -3.3280 hc        1 MOL      0.115161
     71 H31        -6.0710   -2.3600   -3.1310 hc        1 MOL      0.115161
     72 H32        -4.7370   -3.7030   -1.4790 hn        1 MOL      0.332463
     73 H33        -3.0680   -3.3730   -1.2900 hn        1 MOL      0.332463
     74 N8         -5.8970   -2.1420    0.8360 n         1 MOL     -0.208059
     75 C23        -5.9450   -3.1210    1.9370 c3        1 MOL     -0.216398
     76 C24        -4.7050   -3.9920    2.1560 c         1 MOL      0.448192
     77 O12        -4.7840   -5.0220    2.8330 o         1 MOL     -0.538229
     78 H34        -5.4200   -1.2740    1.0400 hn        1 MOL      0.287690
     79 H35        -6.8260   -3.7360    1.7470 h1        1 MOL      0.134510
     80 H36        -6.1550   -2.6580    2.8950 h1        1 MOL      0.134510
     81 N9         -3.5820   -3.6500    1.5250 n         1 MOL     -0.080137
     82 C25        -2.2260   -4.0840    1.9770 c3        1 MOL     -0.073677
     83 C26        -1.2200   -3.0360    1.4800 c         1 MOL      0.668597
     84 O13        -1.4710   -2.2140    0.6600 o         1 MOL     -0.644986
     85 C27        -1.8370   -5.4830    1.4360 c3        1 MOL     -0.380660
     86 C28        -1.8890   -5.7080   -0.1080 ca        1 MOL      0.241058
     87 C29        -0.7280   -5.3890   -0.8760 ca        1 MOL     -0.268746
     88 C30        -3.0670   -6.0960   -0.7110 ca        1 MOL     -0.268746
     89 C31        -0.7440   -5.6660   -2.2730 ca        1 MOL     -0.205523
     90 C32        -3.0650   -6.3600   -2.1090 ca        1 MOL     -0.205523
     91 C33        -1.9440   -6.1190   -2.8860 ca        1 MOL      0.281782
     92 O14        -1.9260   -6.5220   -4.1680 oh        1 MOL     -0.456899
     93 H37        -3.5740   -2.8050    0.9730 hn        1 MOL      0.097360
     94 H38        -2.1060   -4.0670    3.0660 h1        1 MOL      0.107531
     95 H39        -2.5850   -6.1820    1.8190 hc        1 MOL      0.138033
     96 H40        -0.8660   -5.7630    1.8290 hc        1 MOL      0.138033
     97 H41         0.1250   -4.9640   -0.3800 ha        1 MOL      0.194021
     98 H42        -3.9910   -6.2220   -0.1590 ha        1 MOL      0.194021
     99 H43         0.1070   -5.4080   -2.8910 ha        1 MOL      0.142362
    100 H44        -3.8900   -6.7940   -2.6570 ha        1 MOL      0.142362
    101 H45        -1.1320   -6.3290   -4.6810 ho        1 MOL      0.355584
    102 N10        -0.0590   -3.0920    2.1440 n         1 MOL     -0.692489
    103 C34         1.1610   -2.2530    1.9650 c3        1 MOL      0.078781
    104 C35         2.1660   -3.0390    1.1250 c         1 MOL      0.402352
    105 O15         2.2930   -4.2560    1.2700 o         1 MOL     -0.562886
    106 C36         1.7200   -1.8460    3.3410 c3        1 MOL      0.270572
    107 C37         0.6690   -1.4990    4.4320 c3        1 MOL      0.090447
    108 C38         2.8870   -0.8380    3.1760 c3        1 MOL     -0.442864
    109 C39         1.1570   -1.4570    5.8210 c3        1 MOL     -0.369118
    110 H46         0.0540   -3.8400    2.8100 hn        1 MOL      0.361320
    111 H47         0.8590   -1.3470    1.4440 h1        1 MOL      0.112536
    112 H48         2.1410   -2.7410    3.8150 hc        1 MOL     -0.034007
    113 H49        -0.0580   -2.3080    4.3880 hc        1 MOL      0.003870
    114 H50         0.2200   -0.5210    4.2560 hc        1 MOL      0.003870
    115 H51         2.4980    0.1230    2.8540 hc        1 MOL      0.097026
    116 H52         3.4810   -0.7810    4.0950 hc        1 MOL      0.097026
    117 H53         3.6170   -1.2200    2.4610 hc        1 MOL      0.097026
    118 H54         0.3250   -1.5000    6.5290 hc        1 MOL      0.091149
    119 H55         1.7690   -2.3460    5.9460 hc        1 MOL      0.091149
    120 H56         1.8600   -0.6300    5.9260 hc        1 MOL      0.091149
    121 N11         2.9050   -2.4180    0.2060 n         1 MOL     -0.015137
    122 C40         3.9720   -3.0760   -0.6020 c3        1 MOL     -0.312672
    123 C41         5.3280   -2.6260   -0.1070 c         1 MOL      0.703588
    124 O16         5.5610   -1.6000    0.4990 o         1 MOL     -0.515535
    125 C42         3.8110   -2.8510   -2.0750 c3        1 MOL      0.040634
    126 O17         3.9670   -1.4820   -2.4760 oh        1 MOL     -0.497856
    127 H57         2.6320   -1.4660   -0.0250 hn        1 MOL      0.250345
    128 H58         3.8790   -4.1230   -0.3280 h1        1 MOL      0.137461
    129 H59         2.7750   -3.1070   -2.3130 h1        1 MOL      0.047854
    130 H60         4.4860   -3.4160   -2.7180 h1        1 MOL      0.047854
    131 H61         4.0100   -1.4780   -3.4440 ho        1 MOL      0.391874
    132 N12         6.4560   -3.2620   -0.5640 n         1 MOL     -0.560328
    133 C43         7.8460   -2.9000   -0.1290 c3        1 MOL      0.214229
    134 C44         8.3310   -1.5080   -0.4200 c         1 MOL      0.398353
    135 O18         8.6900   -0.7680    0.5090 o         1 MOL     -0.519898
    136 C45         8.8450   -3.9390   -0.7400 c3        1 MOL     -0.359944
    137 H62         6.3470   -4.0830   -1.1310 hn        1 MOL      0.291533
    138 H63         7.6980   -3.0330    0.9490 h1        1 MOL      0.066911
    139 H64         9.0170   -3.6950   -1.7910 hc        1 MOL      0.109875
    140 H65         9.7120   -3.9230   -0.0760 hc        1 MOL      0.109875
    141 H66         8.3880   -4.9150   -0.5830 hc        1 MOL      0.109875
    142 N13         8.1750   -1.0540   -1.6290 n         1 MOL     -0.349261
    143 C46         8.4350    0.3480   -1.9400 c3        1 MOL      0.284069
    144 C47         7.4680    1.3950   -1.3340 c         1 MOL      0.296580
    145 O19         7.8720    2.5610   -1.0700 o         1 MOL     -0.512607
    146 C48         8.7250    0.4640   -3.4350 c3        1 MOL     -0.269450
    147 H67         7.8540   -1.5950   -2.4120 hn        1 MOL      0.261016
    148 H68         9.3720    0.6860   -1.4900 h1        1 MOL      0.058209
    149 H69         9.6610   -0.0630   -3.5810 hc        1 MOL      0.067503
    150 H70         7.8950   -0.0220   -3.9500 hc        1 MOL      0.067503
    151 H71         8.7620    1.5090   -3.7400 hc        1 MOL      0.067503
    152 N14         6.2220    1.0200   -1.1240 n         1 MOL     -0.075359
    153 C49         5.2560    1.7920   -0.3990 c3        1 MOL     -0.160138
    154 C50         5.5560    1.9310    1.0880 c         1 MOL      0.556977
    155 O20         5.3220    3.0560    1.5630 o         1 MOL     -0.563930
    156 C51         3.8280    1.2910   -0.7190 c3        1 MOL     -0.026397
    157 C52         2.6990    2.1160   -0.0830 c3        1 MOL     -0.076936
    158 C53         1.3330    1.4880   -0.3030 c         1 MOL      0.948027
    159 O21         1.1880    0.3260    0.0390 o         1 MOL     -0.928404
    160 O22         0.3530    2.1090   -0.7470 o         1 MOL     -0.928404
    161 H72         6.0140    0.0910   -1.4740 hn        1 MOL      0.048030
    162 H73         5.2570    2.8170   -0.7820 h1        1 MOL      0.082316
    163 H74         3.6920    0.3030   -0.2850 hc        1 MOL     -0.003023
    164 H75         3.5730    1.2220   -1.7760 hc        1 MOL     -0.003023
    165 H76         2.7170    3.0210   -0.6880 hc        1 MOL      0.036519
    166 H77         2.8660    2.3000    0.9770 hc        1 MOL      0.036519
    167 N15         5.9850    0.8520    1.7470 n         1 MOL     -0.141763
    168 C54         6.5190    1.0380    3.0970 c3        1 MOL     -0.235401
    169 H78         5.7290    1.4080    3.7510 h1        1 MOL      0.101106
    170 H79         6.8880    0.0850    3.4770 h1        1 MOL      0.101106
    171 H80         7.3360    1.7600    3.0700 h1        1 MOL      0.101106
    172 H81         6.2620    0.1170    1.1120 hn        1 MOL      0.224016
    173 Ca1        -1.2670    0.0180   -1.0480 Ca        1 MOL      1.792307
    174 O23        -0.1160   -2.3990   -1.9790 oh        1 MOL     -0.808561
    175 H82         0.4690   -2.3160   -2.7340 ho        1 MOL      0.379882
    176 H83        -0.0420   -3.3260   -1.7240 ho        1 MOL      0.379882
    177 O24        -0.3060    0.3120   -3.6000 oh        1 MOL     -0.808561
    178 H84        -0.9200    1.0300   -3.7700 ho        1 MOL      0.379882
    179 H85         0.5210    0.6080   -3.9650 ho        1 MOL      0.379882
@<TRIPOS>BOND
     1    1    2 1   
     2    1    4 1   
     3    1    5 1   
     4    1    6 1   
     5    2    3 2   
     6    2    7 1   
     7    7    8 1   
     8    7   15 1   
     9    8    9 1   
    10    8   11 1   
    11    8   16 1   
    12    9   10 2   
    13    9   19 1   
    14   11   12 1   
    15   11   17 1   
    16   11   18 1   
    17   12   13 1   
    18   12   14 1   
    19   19   20 1   
    20   19   28 1   
    21   20   21 1   
    22   20   23 1   
    23   20   29 1   
    24   21   22 2   
    25   21   41 1   
    26   23   24 1   
    27   23   30 1   
    28   23   31 1   
    29   24   25 1   
    30   24   32 1   
    31   24   33 1   
    32   25   26 1   
    33   25   34 1   
    34   25   35 1   
    35   26   27 1   
    36   26   36 1   
    37   26   37 1   
    38   27   38 1   
    39   27   39 1   
    40   27   40 1   
    41   41   42 1   
    42   41   49 1   
    43   42   43 1   
    44   42   45 1   
    45   42   50 1   
    46   43   44 2   
    47   43   53 1   
    48   45   46 1   
    49   45   51 1   
    50   45   52 1   
    51   46   47 1   
    52   46   48 1   
    53   53   54 1   
    54   53   57 1   
    55   54   55 1   
    56   54   58 1   
    57   54   59 1   
    58   55   56 2   
    59   55   60 1   
    60   60   61 1   
    61   60   68 1   
    62   61   62 1   
    63   61   64 1   
    64   61   69 1   
    65   62   63 2   
    66   62   74 1   
    67   64   65 1   
    68   64   70 1   
    69   64   71 1   
    70   65   66 1   
    71   65   67 2   
    72   66   72 1   
    73   66   73 1   
    74   74   75 1   
    75   74   78 1   
    76   75   76 1   
    77   75   79 1   
    78   75   80 1   
    79   76   77 2   
    80   76   81 1   
    81   81   82 1   
    82   81   93 1   
    83   82   83 1   
    84   82   85 1   
    85   82   94 1   
    86   83   84 2   
    87   83  102 1   
    88   85   86 1   
    89   85   95 1   
    90   85   96 1   
    91   86   87 ar  
    92   86   88 ar  
    93   87   89 ar  
    94   87   97 1   
    95   88   90 ar  
    96   88   98 1   
    97   89   91 ar  
    98   89   99 1   
    99   90   91 ar  
   100   90  100 1   
   101   91   92 1   
   102   92  101 1   
   103  102  103 1   
   104  102  110 1   
   105  103  104 1   
   106  103  106 1   
   107  103  111 1   
   108  104  105 2   
   109  104  121 1   
   110  106  107 1   
   111  106  108 1   
   112  106  112 1   
   113  107  109 1   
   114  107  113 1   
   115  107  114 1   
   116  108  115 1   
   117  108  116 1   
   118  108  117 1   
   119  109  118 1   
   120  109  119 1   
   121  109  120 1   
   122  121  122 1   
   123  121  127 1   
   124  122  123 1   
   125  122  125 1   
   126  122  128 1   
   127  123  124 2   
   128  123  132 1   
   129  125  126 1   
   130  125  129 1   
   131  125  130 1   
   132  126  131 1   
   133  132  133 1   
   134  132  137 1   
   135  133  134 1   
   136  133  136 1   
   137  133  138 1   
   138  134  135 2   
   139  134  142 1   
   140  136  139 1   
   141  136  140 1   
   142  136  141 1   
   143  142  143 1   
   144  142  147 1   
   145  143  144 1   
   146  143  146 1   
   147  143  148 1   
   148  144  145 2   
   149  144  152 1   
   150  146  149 1   
   151  146  150 1   
   152  146  151 1   
   153  152  153 1   
   154  152  161 1   
   155  153  154 1   
   156  153  156 1   
   157  153  162 1   
   158  154  155 2   
   159  154  167 1   
   160  156  157 1   
   161  156  163 1   
   162  156  164 1   
   163  157  158 1   
   164  157  165 1   
   165  157  166 1   
   166  158  159 1   
   167  158  160 1   
   168  167  168 1   
   169  167  172 1   
   170  168  169 1   
   171  168  170 1   
   172  168  171 1   
   173  174  175 1   
   174  174  176 1   
   175  177  178 1   
   176  177  179 1   
@<TRIPOS>SUBSTRUCTURE
     1 MOL         1 TEMP              0 ****  ****    0 ROOT
