@<TRIPOS>MOLECULE
MOL
  189   185     1     0     0
SMALL
resp


@<TRIPOS>ATOM
      1 C1         -0.6270    3.6400    5.6160 c3        1 MOL     -0.285303
      2 C2         -0.7210    3.3450    4.1210 c         1 MOL      0.653247
      3 O1          0.0450    3.8190    3.3130 o         1 MOL     -0.613128
      4 H1         -1.1870    2.8860    6.1700 hc        1 MOL      0.079191
      5 H2          0.4180    3.6160    5.9260 hc        1 MOL      0.079191
      6 H3         -1.0450    4.6250    5.8200 hc        1 MOL      0.079191
      7 N1         -1.8480    2.7060    3.7920 n         1 MOL     -0.606567
      8 C3         -2.2720    2.3040    2.4430 c3        1 MOL      0.381162
      9 C4         -2.5940    3.6150    1.7090 c         1 MOL      0.451840
     10 O2         -3.1610    4.5220    2.3230 o         1 MOL     -0.619328
     11 C5         -3.4170    1.2630    2.5160 c3        1 MOL     -0.462310
     12 C6         -4.1140    0.8090    1.1760 c         1 MOL      0.903543
     13 O3         -5.1180    0.0630    1.2880 o         1 MOL     -0.716807
     14 O4         -3.6000    1.1260    0.0850 o         1 MOL     -0.716807
     15 H4         -2.4900    2.5700    4.5700 hn        1 MOL      0.318586
     16 H5         -1.4110    1.9420    1.8740 h1        1 MOL     -0.006304
     17 H6         -4.2470    1.7890    2.9680 hc        1 MOL      0.104578
     18 H7         -3.1160    0.4020    3.1160 hc        1 MOL      0.104578
     19 N2         -2.2970    3.6520    0.4010 n         1 MOL      0.013329
     20 C7         -2.2230    4.7530   -0.5330 c3        1 MOL     -0.194248
     21 C8         -3.2640    4.5360   -1.6820 c         1 MOL      0.550938
     22 O5         -3.3690    5.2890   -2.6690 o         1 MOL     -0.512062
     23 C9         -0.7740    4.9240   -0.9510 c3        1 MOL      0.116862
     24 C10         0.4000    5.2790    0.0670 c3        1 MOL     -0.155949
     25 C11         0.3720    6.7810    0.5580 c3        1 MOL      0.014698
     26 C12        -0.7640    7.1730    1.5530 c3        1 MOL     -0.036482
     27 N3         -0.7590    6.5050    2.8260 n4        1 MOL     -0.240510
     28 H8         -2.0400    2.7650   -0.0040 hn        1 MOL      0.136177
     29 H9         -2.5800    5.7030   -0.1320 h1        1 MOL      0.076289
     30 H10        -0.7410    5.6690   -1.7460 hc        1 MOL      0.024489
     31 H11        -0.4330    3.9870   -1.4150 hc        1 MOL      0.024489
     32 H12         1.3030    5.0580   -0.4860 hc        1 MOL      0.060320
     33 H13         0.3520    4.5950    0.9280 hc        1 MOL      0.060320
     34 H14         0.2060    7.3780   -0.3450 hc        1 MOL      0.026263
     35 H15         1.3530    7.0850    0.9240 hc        1 MOL      0.026263
     36 H16        -1.7300    6.9190    1.1100 hx        1 MOL      0.071372
     37 H17        -0.6180    8.2220    1.7880 hx        1 MOL      0.071372
     38 H18        -0.0620    6.9070    3.4420 hn        1 MOL      0.289786
     39 H19        -1.7120    6.6480    3.1390 hn        1 MOL      0.289786
     40 H20        -0.7660    5.4910    2.8120 hn        1 MOL      0.289786
     41 N4         -4.1270    3.4050   -1.6370 n         1 MOL     -0.417020
     42 C13        -5.0050    2.9340   -2.6910 c3        1 MOL      0.036781
     43 C14        -6.4120    2.4930   -2.1680 c         1 MOL      0.427494
     44 O6         -7.3630    2.4560   -2.9350 o         1 MOL     -0.507595
     45 C15        -4.3960    1.6750   -3.3510 c3        1 MOL     -0.044999
     46 C16        -2.9260    1.8580   -3.7250 c         1 MOL      0.648914
     47 O7         -2.1350    1.4320   -2.9150 o         1 MOL     -0.633668
     48 O8         -2.6110    2.4110   -4.8330 o         1 MOL     -0.633668
     49 H21        -3.8780    2.7610   -0.9030 hn        1 MOL      0.054312
     50 H22        -5.1790    3.7490   -3.3940 h1        1 MOL      0.115773
     51 H23        -4.9860    1.4080   -4.2230 hc        1 MOL      0.022566
     52 H24        -4.5120    0.8120   -2.6900 hc        1 MOL      0.022566
     53 N5         -6.5390    2.1480   -0.8530 n         1 MOL     -0.353855
     54 C17        -7.6690    1.4830   -0.2960 c3        1 MOL     -0.018820
     55 C18        -7.7670    0.0300   -0.7770 c         1 MOL      0.365616
     56 O9         -8.8740   -0.4640   -0.6430 o         1 MOL     -0.504287
     57 H25        -5.7800    2.3540   -0.2270 hn        1 MOL      0.250876
     58 H26        -8.5970    2.0250   -0.4740 h1        1 MOL      0.082673
     59 H27        -7.6790    1.5300    0.7940 h1        1 MOL      0.082673
     60 N6         -6.7230   -0.5980   -1.4190 n         1 MOL     -0.057209
     61 C19        -6.9030   -1.9580   -1.7940 c3        1 MOL     -0.124691
     62 C20        -6.9410   -2.7920   -0.4490 c         1 MOL      0.422854
     63 O10        -7.6010   -3.8240   -0.3550 o         1 MOL     -0.545171
     64 C21        -5.7740   -2.4270   -2.6790 c3        1 MOL     -0.138292
     65 C22        -4.3910   -1.9320   -2.2380 c         1 MOL      0.782912
     66 O11        -3.6190   -1.5340   -3.1570 o         1 MOL     -0.806473
     67 O12        -4.0450   -1.8720   -1.0880 o         1 MOL     -0.806473
     68 H28        -5.8550   -0.1160   -1.6330 hn        1 MOL      0.146326
     69 H29        -7.8870   -2.1510   -2.2230 h1        1 MOL      0.119649
     70 H30        -5.9410   -2.2780   -3.7420 hc        1 MOL      0.057105
     71 H31        -5.6750   -3.5130   -2.5920 hc        1 MOL      0.057105
     72 N7         -6.3300   -2.4040    0.7060 n         1 MOL     -0.142847
     73 C23        -6.1120   -3.2580    1.9030 c3        1 MOL     -0.248308
     74 C24        -4.8850   -4.2260    1.7300 c         1 MOL      0.573897
     75 O13        -4.9020   -5.2620    2.4050 o         1 MOL     -0.594264
     76 H32        -5.7570   -1.5630    0.6690 hn        1 MOL      0.189807
     77 H33        -6.9860   -3.8870    2.1100 h1        1 MOL      0.116742
     78 H34        -5.8670   -2.6250    2.7530 h1        1 MOL      0.116742
     79 N8         -3.8710   -3.7630    1.0990 n         1 MOL     -0.279646
     80 C25        -2.5580   -4.4470    1.1650 c3        1 MOL     -0.107032
     81 C26        -1.4790   -3.2650    1.2310 c         1 MOL      0.590903
     82 O14        -1.6320   -2.1450    0.7140 o         1 MOL     -0.639391
     83 C27        -2.3550   -5.4510    0.0460 c3        1 MOL      0.354560
     84 C28        -2.7390   -6.8520    0.4100 c3        1 MOL     -0.518643
     85 O15        -3.1300   -5.2000   -1.1310 oh        1 MOL     -0.660296
     86 H35        -4.0640   -2.9840    0.4900 hn        1 MOL      0.280022
     87 H36        -2.4570   -4.9300    2.1370 h1        1 MOL      0.091673
     88 H37        -1.2970   -5.5260   -0.2170 h1        1 MOL      0.055457
     89 H38        -4.0330   -5.5120   -1.0470 ho        1 MOL      0.443393
     90 H39        -3.7940   -6.8500    0.6830 hc        1 MOL      0.137385
     91 H40        -2.5630   -7.4540   -0.4720 hc        1 MOL      0.137385
     92 H41        -2.0790   -7.2790    1.1600 hc        1 MOL      0.137385
     93 N9         -0.3800   -3.6680    1.8420 n         1 MOL     -0.531071
     94 C29         0.8770   -2.8520    1.9550 c3        1 MOL      0.074998
     95 C30         1.9880   -3.4480    1.0240 c         1 MOL      0.370292
     96 O16         2.5360   -4.5430    1.2260 o         1 MOL     -0.514668
     97 C31         1.2340   -2.5810    3.4990 c3        1 MOL      0.044089
     98 C32         0.0790   -1.7680    4.1170 c3        1 MOL      0.227747
     99 C33         2.6200   -1.9490    3.7680 c3        1 MOL     -0.342160
    100 C34         0.2810   -1.1910    5.5600 c3        1 MOL     -0.267072
    101 H42        -0.3530   -4.5970    2.2260 hn        1 MOL      0.311361
    102 H43         0.6960   -1.8570    1.5380 h1        1 MOL      0.147485
    103 H44         1.3130   -3.5450    4.0110 hc        1 MOL      0.012706
    104 H45        -0.7820   -2.4330    4.1550 hc        1 MOL     -0.043685
    105 H46        -0.1650   -0.9070    3.4890 hc        1 MOL     -0.043685
    106 H47         2.4870   -0.8660    3.7180 hc        1 MOL      0.081227
    107 H48         2.9640   -2.1620    4.7820 hc        1 MOL      0.081227
    108 H49         3.3190   -2.2210    2.9760 hc        1 MOL      0.081227
    109 H50         0.5330   -1.9940    6.2630 hc        1 MOL      0.066921
    110 H51         1.0980   -0.4790    5.5320 hc        1 MOL      0.066921
    111 H52        -0.6010   -0.6600    5.9060 hc        1 MOL      0.066921
    112 N10         2.3880   -2.6290    0.0210 n         1 MOL     -0.113751
    113 C35         3.5510   -2.9090   -0.8590 c3        1 MOL     -0.041844
    114 C36         4.8360   -2.5230   -0.2200 c         1 MOL      0.359549
    115 O17         4.7800   -1.7390    0.6720 o         1 MOL     -0.258320
    116 C37         3.4070   -2.2170   -2.1160 c3        1 MOL      0.257707
    117 C38         2.1860   -2.5190   -3.0780 c3        1 MOL     -0.564020
    118 O18         3.2380   -0.8390   -1.8300 oh        1 MOL     -0.657766
    119 H53         2.0110   -1.6980   -0.1260 hn        1 MOL      0.126083
    120 H54         3.6710   -3.9660   -1.0690 h1        1 MOL      0.068554
    121 H55         4.3290   -2.2140   -2.6850 h1        1 MOL      0.024000
    122 H56         2.3140   -0.7890   -1.5610 ho        1 MOL      0.470170
    123 H57         1.3730   -2.8750   -2.4450 hc        1 MOL      0.163056
    124 H58         2.0200   -1.6250   -3.6820 hc        1 MOL      0.163056
    125 H59         2.4120   -3.3790   -3.6990 hc        1 MOL      0.163056
    126 N11         6.0460   -2.9420   -0.6480 n         1 MOL     -0.389596
    127 C39         7.3460   -2.3930   -0.2400 c3        1 MOL     -0.040016
    128 C40         7.4220   -0.8630   -0.1220 c         1 MOL      0.239398
    129 O19         8.1960   -0.4040    0.6960 o         1 MOL     -0.493987
    130 C41         8.5250   -2.7330   -1.1510 c3        1 MOL      0.188879
    131 C42         8.9620   -4.1790   -1.0650 c3        1 MOL     -0.491985
    132 O20         8.0980   -2.5330   -2.4080 oh        1 MOL     -0.603742
    133 H60         6.1200   -3.5350   -1.4580 hn        1 MOL      0.281900
    134 H61         7.6760   -2.8630    0.6920 h1        1 MOL      0.142742
    135 H62         9.3740   -2.0700   -0.9680 h1        1 MOL      0.086249
    136 H63         8.8880   -2.8140   -2.8770 ho        1 MOL      0.402908
    137 H64         8.1930   -4.8300   -1.4970 hc        1 MOL      0.143983
    138 H65         9.8430   -4.3310   -1.6850 hc        1 MOL      0.143983
    139 H66         9.1870   -4.5240   -0.0600 hc        1 MOL      0.143983
    140 N12         6.6910    0.0060   -0.8620 n         1 MOL     -0.075049
    141 C43         6.7480    1.4490   -0.6690 c3        1 MOL     -0.031815
    142 C44         5.9370    1.8700    0.5910 c         1 MOL      0.357088
    143 O21         6.3350    2.7800    1.2520 o         1 MOL     -0.479174
    144 C45         6.3290    2.2170   -1.8450 c3        1 MOL     -0.302049
    145 C46         7.1290    1.8380   -3.1210 c3        1 MOL      0.018502
    146 C47         8.4460    2.4980   -3.1600 c3        1 MOL      0.041781
    147 C48         9.3740    1.7120   -4.1300 c3        1 MOL     -0.032324
    148 N13        10.7330    2.2430   -4.3820 n4        1 MOL     -0.118174
    149 H67         6.0490   -0.2780   -1.5800 hn        1 MOL      0.307143
    150 H68         7.7540    1.8160   -0.4890 h1        1 MOL      0.081511
    151 H69         6.3330    3.2900   -1.6270 hc        1 MOL      0.121667
    152 H70         5.2710    1.9980   -2.0080 hc        1 MOL      0.121667
    153 H71         6.5550    2.2300   -3.9530 hc        1 MOL      0.014769
    154 H72         7.1810    0.7460   -3.2160 hc        1 MOL      0.014769
    155 H73         8.9460    2.6600   -2.2070 hc        1 MOL      0.039825
    156 H74         8.2810    3.4750   -3.5950 hc        1 MOL      0.039825
    157 H75         8.8650    1.7520   -5.0920 hx        1 MOL      0.069926
    158 H76         9.5620    0.7330   -3.6850 hx        1 MOL      0.069926
    159 H77        11.1670    1.7000   -5.1150 hn        1 MOL      0.227486
    160 H78        10.7920    3.2120   -4.6670 hn        1 MOL      0.227486
    161 H79        11.3420    2.1880   -3.5900 hn        1 MOL      0.227486
    162 N14         4.7700    1.1470    0.8030 n         1 MOL     -0.039156
    163 C49         3.8810    1.4140    1.9220 c3        1 MOL     -0.290701
    164 C50         4.5000    0.8800    3.2820 c         1 MOL      0.503100
    165 O22         4.2000    1.2920    4.3980 o         1 MOL     -0.522383
    166 C51         2.5020    0.7840    1.6300 c3        1 MOL      0.015614
    167 C52         1.8150    1.5870    0.4800 c3        1 MOL     -0.009234
    168 C53         0.6660    0.8810   -0.2420 c         1 MOL      0.802053
    169 O23         0.8850   -0.2760   -0.6980 o         1 MOL     -0.792904
    170 O24        -0.4630    1.3680   -0.2490 o         1 MOL     -0.792904
    171 H80         4.4980    0.4430    0.1340 hn        1 MOL      0.082922
    172 H81         3.7770    2.4950    1.9690 h1        1 MOL      0.145213
    173 H82         1.9090    0.8320    2.5390 hc        1 MOL      0.062188
    174 H83         2.5580   -0.2560    1.3030 hc        1 MOL      0.062188
    175 H84         2.4710    1.9100   -0.3320 hc        1 MOL     -0.013547
    176 H85         1.4590    2.5450    0.8690 hc        1 MOL     -0.013547
    177 N15         5.4850   -0.0850    3.2030 n         1 MOL     -0.228973
    178 C54         6.0160   -0.8820    4.3300 c3        1 MOL     -0.271104
    179 H86         5.2900   -1.6450    4.6090 h1        1 MOL      0.114628
    180 H87         6.9480   -1.3600    4.0290 h1        1 MOL      0.114628
    181 H88         6.2010   -0.2280    5.1820 h1        1 MOL      0.114628
    182 H89         5.6480   -0.4630    2.2840 hn        1 MOL      0.202018
    183 Ca1        -1.8190   -0.6070   -1.4580 Ca        1 MOL      1.827917
    184 O25        -0.6350   -0.7700   -3.9780 oh        1 MOL     -0.904140
    185 H90        -1.3100   -1.3030   -4.3880 ho        1 MOL      0.429403
    186 H91        -0.3250   -0.1930   -4.6750 ho        1 MOL      0.429403
    187 O26        -1.4190   -3.2030   -2.0160 oh        1 MOL     -0.904140
    188 H92        -0.9770   -3.6120   -2.7610 ho        1 MOL      0.429403
    189 H93        -2.2600   -3.6520   -1.9490 ho        1 MOL      0.429403
@<TRIPOS>BOND
     1    1    2 1   
     2    1    4 1   
     3    1    5 1   
     4    1    6 1   
     5    2    3 2   
     6    2    7 1   
     7    7    8 1   
     8    7   15 1   
     9    8    9 1   
    10    8   11 1   
    11    8   16 1   
    12    9   10 2   
    13    9   19 1   
    14   11   12 1   
    15   11   17 1   
    16   11   18 1   
    17   12   13 1   
    18   12   14 1   
    19   19   20 1   
    20   19   28 1   
    21   20   21 1   
    22   20   23 1   
    23   20   29 1   
    24   21   22 2   
    25   21   41 1   
    26   23   24 1   
    27   23   30 1   
    28   23   31 1   
    29   24   25 1   
    30   24   32 1   
    31   24   33 1   
    32   25   26 1   
    33   25   34 1   
    34   25   35 1   
    35   26   27 1   
    36   26   36 1   
    37   26   37 1   
    38   27   38 1   
    39   27   39 1   
    40   27   40 1   
    41   41   42 1   
    42   41   49 1   
    43   42   43 1   
    44   42   45 1   
    45   42   50 1   
    46   43   44 2   
    47   43   53 1   
    48   45   46 1   
    49   45   51 1   
    50   45   52 1   
    51   46   47 1   
    52   46   48 1   
    53   53   54 1   
    54   53   57 1   
    55   54   55 1   
    56   54   58 1   
    57   54   59 1   
    58   55   56 2   
    59   55   60 1   
    60   60   61 1   
    61   60   68 1   
    62   61   62 1   
    63   61   64 1   
    64   61   69 1   
    65   62   63 2   
    66   62   72 1   
    67   64   65 1   
    68   64   70 1   
    69   64   71 1   
    70   65   66 1   
    71   65   67 1   
    72   72   73 1   
    73   72   76 1   
    74   73   74 1   
    75   73   77 1   
    76   73   78 1   
    77   74   75 2   
    78   74   79 1   
    79   79   80 1   
    80   79   86 1   
    81   80   81 1   
    82   80   83 1   
    83   80   87 1   
    84   81   82 2   
    85   81   93 1   
    86   83   84 1   
    87   83   85 1   
    88   83   88 1   
    89   84   90 1   
    90   84   91 1   
    91   84   92 1   
    92   85   89 1   
    93   93   94 1   
    94   93  101 1   
    95   94   95 1   
    96   94   97 1   
    97   94  102 1   
    98   95   96 2   
    99   95  112 1   
   100   97   98 1   
   101   97   99 1   
   102   97  103 1   
   103   98  100 1   
   104   98  104 1   
   105   98  105 1   
   106   99  106 1   
   107   99  107 1   
   108   99  108 1   
   109  100  109 1   
   110  100  110 1   
   111  100  111 1   
   112  112  113 1   
   113  112  119 1   
   114  113  114 1   
   115  113  116 1   
   116  113  120 1   
   117  114  115 2   
   118  114  126 1   
   119  116  117 1   
   120  116  118 1   
   121  116  121 1   
   122  117  123 1   
   123  117  124 1   
   124  117  125 1   
   125  118  122 1   
   126  126  127 1   
   127  126  133 1   
   128  127  128 1   
   129  127  130 1   
   130  127  134 1   
   131  128  129 2   
   132  128  140 1   
   133  130  131 1   
   134  130  132 1   
   135  130  135 1   
   136  131  137 1   
   137  131  138 1   
   138  131  139 1   
   139  132  136 1   
   140  140  141 1   
   141  140  149 1   
   142  141  142 1   
   143  141  144 1   
   144  141  150 1   
   145  142  143 2   
   146  142  162 1   
   147  144  145 1   
   148  144  151 1   
   149  144  152 1   
   150  145  146 1   
   151  145  153 1   
   152  145  154 1   
   153  146  147 1   
   154  146  155 1   
   155  146  156 1   
   156  147  148 1   
   157  147  157 1   
   158  147  158 1   
   159  148  159 1   
   160  148  160 1   
   161  148  161 1   
   162  162  163 1   
   163  162  171 1   
   164  163  164 1   
   165  163  166 1   
   166  163  172 1   
   167  164  165 2   
   168  164  177 1   
   169  166  167 1   
   170  166  173 1   
   171  166  174 1   
   172  167  168 1   
   173  167  175 1   
   174  167  176 1   
   175  168  169 1   
   176  168  170 1   
   177  177  178 1   
   178  177  182 1   
   179  178  179 1   
   180  178  180 1   
   181  178  181 1   
   182  184  185 1   
   183  184  186 1   
   184  187  188 1   
   185  187  189 1   
@<TRIPOS>SUBSTRUCTURE
     1 MOL         1 TEMP              0 ****  ****    0 ROOT
