@<TRIPOS>MOLECULE
MOL
  182   178     1     0     0
SMALL
resp


@<TRIPOS>ATOM
      1 C1          1.4820    3.4500    5.9200 c3        1 MOL     -0.304143
      2 C2          1.0220    3.1090    4.4620 c         1 MOL      0.679201
      3 O1          1.8080    3.0860    3.5410 o         1 MOL     -0.578892
      4 H1          0.6140    3.4660    6.5800 hc        1 MOL      0.077271
      5 H2          2.1860    2.6940    6.2670 hc        1 MOL      0.077271
      6 H3          1.9640    4.4280    5.9320 hc        1 MOL      0.077271
      7 N1         -0.2930    2.9550    4.2530 n         1 MOL     -0.602377
      8 C3         -0.8930    2.6550    2.9120 c3        1 MOL      0.016562
      9 C4         -1.0020    3.9720    2.0550 c         1 MOL      0.713205
     10 O2         -1.6410    4.9340    2.4310 o         1 MOL     -0.591582
     11 C5         -2.2510    2.0190    3.1180 c3        1 MOL     -0.109065
     12 C6         -2.8860    1.3610    1.9240 c         1 MOL      0.902137
     13 O3         -2.3240    1.4560    0.8160 o         1 MOL     -0.780565
     14 O4         -3.9880    0.8550    2.0790 o         1 MOL     -0.780565
     15 H4         -0.8350    3.0370    5.0950 hn        1 MOL      0.338464
     16 H5         -0.2980    1.8900    2.4150 h1        1 MOL      0.024390
     17 H6         -2.9330    2.7790    3.4900 hc        1 MOL      0.012728
     18 H7         -2.1470    1.2880    3.9250 hc        1 MOL      0.012728
     19 N2         -0.2740    4.0470    0.9750 n         1 MOL     -0.465329
     20 C7          0.0080    5.2020    0.1140 c3        1 MOL      0.177231
     21 C8         -1.1340    5.5670   -0.7710 c         1 MOL      0.395200
     22 O5         -1.2700    6.6880   -1.2100 o         1 MOL     -0.573523
     23 C9          1.3150    4.9980   -0.6490 c3        1 MOL      0.016808
     24 C10         2.4780    5.9340   -0.1860 c3        1 MOL     -0.238230
     25 C11         3.7720    5.7050   -0.9400 c3        1 MOL      0.153203
     26 C12         4.7980    6.7230   -0.4490 c3        1 MOL      0.016333
     27 N3          5.8700    6.7610   -1.4020 n4        1 MOL     -0.281558
     28 H8          0.2120    3.2080    0.6970 hn        1 MOL      0.268876
     29 H9          0.1250    6.1210    0.6980 h1        1 MOL      0.042384
     30 H10         1.1640    5.2810   -1.6900 hc        1 MOL      0.027732
     31 H11         1.5680    3.9350   -0.6880 hc        1 MOL      0.027732
     32 H12         2.7430    5.7520    0.8450 hc        1 MOL      0.080833
     33 H13         2.0940    6.9420   -0.3190 hc        1 MOL      0.080833
     34 H14         3.7250    5.8630   -2.0150 hc        1 MOL     -0.017321
     35 H15         4.1810    4.7260   -0.7080 hc        1 MOL     -0.017321
     36 H16         5.0320    6.4740    0.5800 hx        1 MOL      0.086974
     37 H17         4.3260    7.6990   -0.4950 hx        1 MOL      0.086974
     38 H18         6.5810    7.4550   -1.2030 hn        1 MOL      0.306016
     39 H19         6.2350    5.8320   -1.5370 hn        1 MOL      0.306016
     40 H20         5.5940    7.0000   -2.3440 hn        1 MOL      0.306016
     41 N4         -2.0610    4.6460   -1.0830 n         1 MOL     -0.144921
     42 C13        -3.1910    4.9950   -1.8870 c3        1 MOL      0.029307
     43 C14        -4.5570    4.4880   -1.2420 c         1 MOL      0.325022
     44 O6         -5.6760    4.5190   -1.8440 o         1 MOL     -0.484251
     45 C15        -2.9280    4.3750   -3.2720 c3        1 MOL     -0.296068
     46 C16        -2.7500    2.8330   -3.2810 c         1 MOL      0.972980
     47 O7         -2.6230    2.1700   -2.2550 o         1 MOL     -0.786814
     48 O8         -2.6000    2.2510   -4.3630 o         1 MOL     -0.786814
     49 H21        -1.9070    3.7170   -0.7130 hn        1 MOL      0.137467
     50 H22        -3.3300    6.0670   -1.9970 h1        1 MOL      0.139161
     51 H23        -1.9820    4.7470   -3.6680 hc        1 MOL      0.060486
     52 H24        -3.7650    4.5670   -3.9300 hc        1 MOL      0.060486
     53 N5         -4.5240    4.0450    0.0640 n         1 MOL     -0.191895
     54 C17        -5.6430    3.6180    0.8910 c3        1 MOL     -0.067178
     55 C18        -6.3960    2.4730    0.3460 c         1 MOL      0.472511
     56 O9         -7.5920    2.2940    0.6370 o         1 MOL     -0.575840
     57 H25        -3.5980    3.9790    0.4480 hn        1 MOL      0.106231
     58 H26        -6.3170    4.4340    1.1550 h1        1 MOL      0.091254
     59 H27        -5.1230    3.2700    1.7910 h1        1 MOL      0.091254
     60 N6         -5.8370    1.6060   -0.5380 n         1 MOL     -0.085717
     61 C19        -6.5290    0.4130   -1.0980 c3        1 MOL     -0.311593
     62 C20        -6.6350   -0.8180   -0.1420 c         1 MOL      0.453116
     63 O10        -6.9580   -1.9280   -0.5960 o         1 MOL     -0.489931
     64 C21        -5.7990    0.1200   -2.4460 c3        1 MOL     -0.066333
     65 C22        -4.5900   -0.7420   -2.3260 c         1 MOL      0.563517
     66 N7         -4.3960   -1.6870   -3.2520 n         1 MOL     -0.814836
     67 O11        -3.7420   -0.5810   -1.4230 o         1 MOL     -0.360857
     68 H28        -4.8620    1.7170   -0.7840 hn        1 MOL      0.102315
     69 H29        -7.5500    0.7380   -1.3030 h1        1 MOL      0.194202
     70 H30        -5.5250    1.0230   -3.0020 hc        1 MOL      0.067468
     71 H31        -6.4750   -0.4010   -3.1220 hc        1 MOL      0.067468
     72 H32        -5.2160   -1.9750   -3.7620 hn        1 MOL      0.376228
     73 H33        -3.6910   -2.4070   -3.1920 hn        1 MOL      0.376228
     74 N8         -6.1590   -0.6430    1.0760 n         1 MOL     -0.290233
     75 C23        -6.1420   -1.6920    2.1460 c3        1 MOL     -0.160147
     76 C24        -4.9500   -2.6360    2.2030 c         1 MOL      0.550537
     77 O12        -5.0670   -3.5440    3.0450 o         1 MOL     -0.588252
     78 H34        -5.7040    0.1970    1.4180 hn        1 MOL      0.337887
     79 H35        -7.0730   -2.2580    2.1350 h1        1 MOL      0.113055
     80 H36        -6.1470   -1.1490    3.0870 h1        1 MOL      0.113055
     81 N9         -3.9170   -2.4960    1.3600 n         1 MOL     -0.082633
     82 C25        -2.7310   -3.4320    1.3950 c3        1 MOL      0.022758
     83 C26        -1.4230   -2.6010    1.3150 c         1 MOL      0.588516
     84 O13        -1.4130   -1.4550    0.8640 o         1 MOL     -0.670702
     85 C27        -2.8760   -4.2670    0.0920 c3        1 MOL      0.083681
     86 C28        -4.0970   -5.1540   -0.1210 ca        1 MOL     -0.285181
     87 C29        -5.1190   -4.7890   -1.0290 ca        1 MOL      0.153991
     88 C30        -4.1870   -6.3930    0.5360 ca        1 MOL      0.153991
     89 C31        -6.1560   -5.6800   -1.3180 ca        1 MOL     -0.537600
     90 C32        -5.2690   -7.2790    0.2580 ca        1 MOL     -0.537600
     91 C33        -6.2830   -6.8570   -0.6030 ca        1 MOL      0.613575
     92 O14        -7.4190   -7.6460   -0.7370 oh        1 MOL     -0.546163
     93 H37        -3.8310   -1.6520    0.8260 hn        1 MOL     -0.024993
     94 H38        -2.7760   -4.0910    2.2560 h1        1 MOL      0.057744
     95 H39        -2.0300   -4.9480    0.0650 hc        1 MOL      0.005894
     96 H40        -2.7060   -3.6310   -0.7750 hc        1 MOL      0.005894
     97 H41        -4.9960   -3.9040   -1.6320 ha        1 MOL      0.055776
     98 H42        -3.3460   -6.6820    1.1510 ha        1 MOL      0.055776
     99 H43        -6.9930   -5.4480   -1.9610 ha        1 MOL      0.197798
    100 H44        -5.3780   -8.2190    0.7860 ha        1 MOL      0.197798
    101 H45        -7.3210   -8.5390   -0.3810 ho        1 MOL      0.361415
    102 N10        -0.2690   -3.2130    1.6930 n         1 MOL     -0.543814
    103 C34         1.0970   -2.6250    1.6110 c3        1 MOL      0.039265
    104 C35         1.8740   -3.5290    0.6780 c         1 MOL      0.430788
    105 O15         2.0210   -4.7320    0.9130 o         1 MOL     -0.521321
    106 C36         1.6670   -2.7080    3.0280 c3        1 MOL      0.066465
    107 C37         0.8050   -1.9620    4.0630 c3        1 MOL     -0.065877
    108 C38         3.0210   -1.9950    3.0980 c3        1 MOL     -0.222664
    109 C39         0.4540   -0.4460    3.8460 c3        1 MOL      0.090791
    110 H46        -0.3930   -4.0430    2.2490 hn        1 MOL      0.326114
    111 H47         0.9920   -1.5850    1.3050 h1        1 MOL      0.126167
    112 H48         1.8420   -3.7160    3.4070 hc        1 MOL      0.041096
    113 H49         1.2260   -2.0380    5.0640 hc        1 MOL      0.009113
    114 H50        -0.1210   -2.5230    4.1160 hc        1 MOL      0.009113
    115 H51         3.4060   -1.8050    4.0990 hc        1 MOL      0.037422
    116 H52         3.7650   -2.4440    2.4400 hc        1 MOL      0.037422
    117 H53         2.9080   -0.9900    2.7040 hc        1 MOL      0.037422
    118 H54        -0.0450   -0.2480    4.7960 hc        1 MOL      0.002417
    119 H55         1.3000    0.2280    3.7550 hc        1 MOL      0.002417
    120 H56        -0.2270   -0.4330    2.9950 hc        1 MOL      0.002417
    121 N11         2.4820   -2.9310   -0.3600 n         1 MOL     -0.149377
    122 C40         3.4360   -3.6200   -1.1690 c3        1 MOL     -0.024419
    123 C41         4.8720   -3.6780   -0.6060 c         1 MOL      0.469313
    124 O16         5.2290   -2.9140    0.3010 o         1 MOL     -0.364007
    125 C42         3.5070   -3.0050   -2.6140 c3        1 MOL     -0.369349
    126 O17         4.1850   -1.7900   -2.6090 oh        1 MOL     -0.366308
    127 H57         2.2130   -1.9720   -0.5280 hn        1 MOL      0.229920
    128 H58         3.0570   -4.6320   -1.2180 h1        1 MOL      0.075736
    129 H59         2.4800   -2.7780   -2.9180 h1        1 MOL      0.162861
    130 H60         4.0490   -3.6700   -3.2930 h1        1 MOL      0.162861
    131 H61         4.2730   -1.5520   -3.5400 ho        1 MOL      0.366311
    132 N12         5.7360   -4.5870   -1.1080 n         1 MOL     -0.535333
    133 C43         7.1650   -4.4720   -0.6030 c3        1 MOL      0.242319
    134 C44         7.9320   -3.1440   -0.8790 c         1 MOL      0.360177
    135 O18         8.8460   -2.7270   -0.1340 o         1 MOL     -0.491736
    136 C45         7.9060   -5.6190   -1.1730 c3        1 MOL     -0.293733
    137 H62         5.4880   -5.2920   -1.7930 hn        1 MOL      0.328303
    138 H63         7.1380   -4.6150    0.4730 h1        1 MOL      0.077051
    139 H64         8.8810   -5.4380   -0.7050 hc        1 MOL      0.084509
    140 H65         7.5870   -6.6160   -0.8850 hc        1 MOL      0.084509
    141 H66         7.9280   -5.4980   -2.2510 hc        1 MOL      0.084509
    142 N13         7.5050   -2.3170   -1.8500 n         1 MOL     -0.252252
    143 C46         7.9990   -1.0320   -2.0850 c3        1 MOL      0.107213
    144 C47         7.4180    0.0770   -1.1790 c         1 MOL      0.276016
    145 O19         8.2000    0.9340   -0.7530 o         1 MOL     -0.483968
    146 C48         7.7750   -0.5420   -3.5290 c3        1 MOL     -0.286765
    147 H67         6.8380   -2.6300   -2.5570 hn        1 MOL      0.199565
    148 H68         9.0730   -1.0690   -1.9220 h1        1 MOL      0.102184
    149 H69         8.2520   -1.1900   -4.2680 hc        1 MOL      0.077223
    150 H70         6.7100   -0.3710   -3.7030 hc        1 MOL      0.077223
    151 H71         8.2770    0.4180   -3.6640 hc        1 MOL      0.077223
    152 N14         6.0780    0.0550   -0.8570 n         1 MOL     -0.062589
    153 C49         5.5540    0.8800    0.2550 c3        1 MOL     -0.142310
    154 C50         6.2200    0.5950    1.6020 c         1 MOL      0.397272
    155 O20         6.4060    1.5450    2.3640 o         1 MOL     -0.529834
    156 C51         3.9840    0.5680    0.2730 c3        1 MOL      0.141036
    157 C52         3.2130    1.3110   -0.8030 c3        1 MOL     -0.701136
    158 C53         1.7230    0.7940   -0.6650 c         1 MOL      1.003717
    159 O21         1.3500   -0.2620   -1.2200 o         1 MOL     -0.808630
    160 O22         0.8430    1.4100    0.0340 o         1 MOL     -0.808630
    161 H72         5.4070   -0.5620   -1.3020 hn        1 MOL      0.098689
    162 H73         5.7090    1.9350    0.0210 h1        1 MOL      0.106480
    163 H74         3.6150    0.9650    1.2150 hc        1 MOL      0.084285
    164 H75         3.7900   -0.4980    0.1780 hc        1 MOL      0.084285
    165 H76         3.6860    1.3750   -1.7860 hc        1 MOL      0.146221
    166 H77         3.2690    2.3420   -0.4520 hc        1 MOL      0.146221
    167 N15         6.5990   -0.6640    1.9000 n         1 MOL      0.026001
    168 C54         7.2710   -1.1010    3.1090 c3        1 MOL     -0.375174
    169 H78         6.5870   -1.0230    3.9530 h1        1 MOL      0.133134
    170 H79         7.5900   -2.1370    2.9950 h1        1 MOL      0.133134
    171 H80         8.1420   -0.4710    3.2910 h1        1 MOL      0.133134
    172 H81         6.2530   -1.3880    1.2870 hn        1 MOL      0.074184
    173 Ca1        -1.2130    0.2280   -1.1520 Ca        1 MOL      1.836451
    174 O23         0.3950    1.8270   -3.1110 oh        1 MOL     -0.900555
    175 H82         0.8150    1.0840   -3.5370 ho        1 MOL      0.418997
    176 H83         0.6970    2.5930   -3.6050 ho        1 MOL      0.418997
    177 O24        -1.8710   -0.2180   -3.8450 oh        1 MOL     -0.900555
    178 H84        -2.3260   -0.6090   -4.5930 ho        1 MOL      0.418997
    179 H85        -1.8620    0.7170   -4.0350 ho        1 MOL      0.418997
    180 O25        -0.5910   -2.3530   -1.9260 oh        1 MOL     -0.900555
    181 H86         0.3290   -2.2290   -2.1450 ho        1 MOL      0.418997
    182 H87        -0.7880   -3.2440   -2.2210 ho        1 MOL      0.418997
@<TRIPOS>BOND
     1    1    2 1   
     2    1    4 1   
     3    1    5 1   
     4    1    6 1   
     5    2    3 2   
     6    2    7 1   
     7    7    8 1   
     8    7   15 1   
     9    8    9 1   
    10    8   11 1   
    11    8   16 1   
    12    9   10 2   
    13    9   19 1   
    14   11   12 1   
    15   11   17 1   
    16   11   18 1   
    17   12   13 1   
    18   12   14 1   
    19   19   20 1   
    20   19   28 1   
    21   20   21 1   
    22   20   23 1   
    23   20   29 1   
    24   21   22 2   
    25   21   41 1   
    26   23   24 1   
    27   23   30 1   
    28   23   31 1   
    29   24   25 1   
    30   24   32 1   
    31   24   33 1   
    32   25   26 1   
    33   25   34 1   
    34   25   35 1   
    35   26   27 1   
    36   26   36 1   
    37   26   37 1   
    38   27   38 1   
    39   27   39 1   
    40   27   40 1   
    41   41   42 1   
    42   41   49 1   
    43   42   43 1   
    44   42   45 1   
    45   42   50 1   
    46   43   44 2   
    47   43   53 1   
    48   45   46 1   
    49   45   51 1   
    50   45   52 1   
    51   46   47 1   
    52   46   48 1   
    53   53   54 1   
    54   53   57 1   
    55   54   55 1   
    56   54   58 1   
    57   54   59 1   
    58   55   56 2   
    59   55   60 1   
    60   60   61 1   
    61   60   68 1   
    62   61   62 1   
    63   61   64 1   
    64   61   69 1   
    65   62   63 2   
    66   62   74 1   
    67   64   65 1   
    68   64   70 1   
    69   64   71 1   
    70   65   66 1   
    71   65   67 2   
    72   66   72 1   
    73   66   73 1   
    74   74   75 1   
    75   74   78 1   
    76   75   76 1   
    77   75   79 1   
    78   75   80 1   
    79   76   77 2   
    80   76   81 1   
    81   81   82 1   
    82   81   93 1   
    83   82   83 1   
    84   82   85 1   
    85   82   94 1   
    86   83   84 2   
    87   83  102 1   
    88   85   86 1   
    89   85   95 1   
    90   85   96 1   
    91   86   87 ar  
    92   86   88 ar  
    93   87   89 ar  
    94   87   97 1   
    95   88   90 ar  
    96   88   98 1   
    97   89   91 ar  
    98   89   99 1   
    99   90   91 ar  
   100   90  100 1   
   101   91   92 1   
   102   92  101 1   
   103  102  103 1   
   104  102  110 1   
   105  103  104 1   
   106  103  106 1   
   107  103  111 1   
   108  104  105 2   
   109  104  121 1   
   110  106  107 1   
   111  106  108 1   
   112  106  112 1   
   113  107  109 1   
   114  107  113 1   
   115  107  114 1   
   116  108  115 1   
   117  108  116 1   
   118  108  117 1   
   119  109  118 1   
   120  109  119 1   
   121  109  120 1   
   122  121  122 1   
   123  121  127 1   
   124  122  123 1   
   125  122  125 1   
   126  122  128 1   
   127  123  124 2   
   128  123  132 1   
   129  125  126 1   
   130  125  129 1   
   131  125  130 1   
   132  126  131 1   
   133  132  133 1   
   134  132  137 1   
   135  133  134 1   
   136  133  136 1   
   137  133  138 1   
   138  134  135 2   
   139  134  142 1   
   140  136  139 1   
   141  136  140 1   
   142  136  141 1   
   143  142  143 1   
   144  142  147 1   
   145  143  144 1   
   146  143  146 1   
   147  143  148 1   
   148  144  145 2   
   149  144  152 1   
   150  146  149 1   
   151  146  150 1   
   152  146  151 1   
   153  152  153 1   
   154  152  161 1   
   155  153  154 1   
   156  153  156 1   
   157  153  162 1   
   158  154  155 2   
   159  154  167 1   
   160  156  157 1   
   161  156  163 1   
   162  156  164 1   
   163  157  158 1   
   164  157  165 1   
   165  157  166 1   
   166  158  159 1   
   167  158  160 1   
   168  167  168 1   
   169  167  172 1   
   170  168  169 1   
   171  168  170 1   
   172  168  171 1   
   173  174  175 1   
   174  174  176 1   
   175  177  178 1   
   176  177  179 1   
   177  180  181 1   
   178  180  182 1   
@<TRIPOS>SUBSTRUCTURE
     1 MOL         1 TEMP              0 ****  ****    0 ROOT
