@<TRIPOS>MOLECULE
MOL
  186   183     1     0     0
SMALL
resp


@<TRIPOS>ATOM
      1 C1          0.4830   -2.0020    6.0730 c3        1 MOL     -0.257206
      2 C2          0.9280   -2.0940    4.6470 c         1 MOL      0.765355
      3 O1          0.1190   -2.5420    3.7870 o         1 MOL     -0.616621
      4 H1          0.5300   -0.9640    6.4020 hc        1 MOL      0.056732
      5 H2         -0.5420   -2.3630    6.1580 hc        1 MOL      0.056732
      6 H3          1.1360   -2.6100    6.6980 hc        1 MOL      0.056732
      7 N1          2.1690   -1.6680    4.3280 n         1 MOL     -0.655750
      8 C3          2.7500   -1.7160    2.9690 c3        1 MOL      0.268858
      9 C4          3.1430   -3.1630    2.6030 c         1 MOL      0.426622
     10 O2          3.9630   -3.8130    3.2660 o         1 MOL     -0.562729
     11 C5          3.8270   -0.6100    2.9610 c3        1 MOL     -0.291599
     12 C6          4.6660   -0.4420    1.7010 c         1 MOL      0.805246
     13 O3          5.8720   -0.1530    1.9320 o         1 MOL     -0.679219
     14 O4          4.1720   -0.7390    0.5730 o         1 MOL     -0.679219
     15 H4          2.7200   -1.0890    4.9340 hn        1 MOL      0.313730
     16 H5          2.0690   -1.3640    2.1990 h1        1 MOL      0.026299
     17 H6          4.5370   -0.6980    3.7930 hc        1 MOL      0.049887
     18 H7          3.3760    0.3750    3.0310 hc        1 MOL      0.049887
     19 N2          2.4750   -3.6000    1.5070 n         1 MOL     -0.096745
     20 C7          2.6190   -4.9880    1.0490 c3        1 MOL     -0.000633
     21 C8          3.4790   -5.1610   -0.1840 c         1 MOL      0.193543
     22 O5          4.1080   -6.2230   -0.2720 o         1 MOL     -0.543461
     23 C9          1.2390   -5.6670    1.0190 c3        1 MOL      0.111465
     24 C10         0.1750   -4.9340    0.1530 c3        1 MOL     -0.001361
     25 C11         0.8690   -6.0810    2.4660 c3        1 MOL     -0.334685
     26 C12        -1.1130   -5.7460   -0.2590 c3        1 MOL     -0.232036
     27 H8          1.7290   -2.9900    1.2000 hn        1 MOL      0.142065
     28 H9          3.2340   -5.4740    1.8160 h1        1 MOL      0.096284
     29 H10         1.4050   -6.6110    0.5060 hc        1 MOL      0.022216
     30 H11         0.5710   -4.5920   -0.8000 hc        1 MOL      0.036359
     31 H12        -0.0710   -4.0120    0.6780 hc        1 MOL      0.036359
     32 H13         0.9580   -5.2500    3.1650 hc        1 MOL      0.078078
     33 H14        -0.1740   -6.3740    2.4110 hc        1 MOL      0.078078
     34 H15         1.4590   -6.9190    2.8560 hc        1 MOL      0.078078
     35 H16        -1.3530   -5.5650   -1.3100 hc        1 MOL      0.060260
     36 H17        -0.8870   -6.7940   -0.0760 hc        1 MOL      0.060260
     37 H18        -1.9870   -5.4330    0.3120 hc        1 MOL      0.060260
     38 N3          3.5190   -4.2300   -1.1190 n         1 MOL      0.001948
     39 C13         4.3730   -4.3050   -2.2900 c3        1 MOL      0.037451
     40 C14         5.7580   -3.7750   -2.0200 c         1 MOL      0.425916
     41 O6          6.6360   -3.9090   -2.8700 o         1 MOL     -0.546462
     42 C15         3.7450   -3.6900   -3.6090 c3        1 MOL     -0.390980
     43 C16         3.1940   -2.2980   -3.4960 c         1 MOL      0.869142
     44 O7          3.4960   -1.5880   -2.5190 o         1 MOL     -0.714436
     45 O8          2.6740   -1.8640   -4.5490 o         1 MOL     -0.714436
     46 H19         3.0260   -3.3700   -0.9460 hn        1 MOL      0.000246
     47 H20         4.4900   -5.3670   -2.4780 h1        1 MOL      0.072393
     48 H21         3.0280   -4.4040   -3.9960 hc        1 MOL      0.098739
     49 H22         4.6010   -3.6070   -4.2730 hc        1 MOL      0.098739
     50 N4          5.9290   -3.1200   -0.8700 n         1 MOL     -0.001184
     51 C17         7.2370   -2.6700   -0.3420 c3        1 MOL     -0.303296
     52 C18         7.7950   -1.3880   -0.9670 c         1 MOL      0.847365
     53 O9          8.5370   -1.5400   -1.9320 o         1 MOL     -0.600691
     54 H23         5.1150   -2.7030   -0.4340 hn        1 MOL      0.129364
     55 H24         7.9300   -3.4770   -0.5520 h1        1 MOL      0.062853
     56 H25         7.1290   -2.4750    0.7320 h1        1 MOL      0.062853
     57 N5          7.4420   -0.2520   -0.3760 n         1 MOL     -0.684605
     58 C19         7.6830    1.0710   -0.9940 c3        1 MOL      0.035423
     59 C20         7.5860    2.3370   -0.1190 c         1 MOL      0.532880
     60 O10         7.9190    3.4130   -0.4970 o         1 MOL     -0.568210
     61 C21         6.8100    1.2550   -2.2250 c3        1 MOL     -0.202755
     62 C22         5.2840    1.2820   -1.9840 c         1 MOL      0.750990
     63 O11         4.7670    1.4970   -0.8840 o         1 MOL     -0.716384
     64 O12         4.5680    1.1310   -3.0290 o         1 MOL     -0.716384
     65 H26         6.8250   -0.3120    0.4160 hn        1 MOL      0.321304
     66 H27         8.7330    1.0260   -1.2650 h1        1 MOL      0.056192
     67 H28         7.1210    0.5930   -3.0240 hc        1 MOL      0.065368
     68 H29         6.9890    2.2620   -2.6320 hc        1 MOL      0.065368
     69 N6          7.1530    2.2170    1.1340 n         1 MOL     -0.298585
     70 C23         6.9240    3.2330    2.0900 c3        1 MOL     -0.172170
     71 C24         5.5670    3.9810    1.9620 c         1 MOL      0.581669
     72 O13         5.5060    5.0630    2.5240 o         1 MOL     -0.601610
     73 H30         6.7480    1.3080    1.3440 hn        1 MOL      0.244058
     74 H31         7.7020    3.9890    1.9660 h1        1 MOL      0.091046
     75 H32         6.9350    2.8780    3.1230 h1        1 MOL      0.091046
     76 N7          4.5710    3.4700    1.1780 n         1 MOL     -0.280753
     77 C25         3.2850    4.1470    1.0230 c3        1 MOL     -0.190911
     78 C26         2.0840    3.1910    1.1500 c         1 MOL      0.752960
     79 O14         2.1960    1.9640    0.9010 o         1 MOL     -0.660524
     80 C27         3.2340    4.9450   -0.2630 c3        1 MOL      0.158984
     81 C28         3.9940    6.2900   -0.1450 c3        1 MOL     -0.325814
     82 C29         3.7710    7.1420   -1.3730 c         1 MOL      0.676870
     83 N8          4.6670    7.0950   -2.2870 n         1 MOL     -0.771682
     84 O15         2.7910    7.8380   -1.4880 o         1 MOL     -0.604743
     85 H33         4.7020    2.5570    0.7730 hn        1 MOL      0.218046
     86 H34         3.2070    4.8780    1.8340 h1        1 MOL      0.087910
     87 H35         2.2000    5.1020   -0.5680 hc        1 MOL      0.025508
     88 H36         3.6060    4.2570   -1.0250 hc        1 MOL      0.025508
     89 H37         5.0680    6.2510    0.0510 hc        1 MOL      0.104459
     90 H38         3.5090    6.8500    0.6580 hc        1 MOL      0.104459
     91 H39         5.3920    6.3920   -2.2960 hn        1 MOL      0.352911
     92 H40         4.6550    7.8250   -2.9930 hn        1 MOL      0.352911
     93 N9          0.8470    3.6840    1.5020 n         1 MOL     -0.656281
     94 C30        -0.3560    2.8300    1.6690 c3        1 MOL     -0.027898
     95 C31        -1.5430    3.3280    0.8610 c         1 MOL      0.603361
     96 O16        -2.1660    4.3120    1.1850 o         1 MOL     -0.568556
     97 C32        -0.6780    2.7190    3.1860 c3        1 MOL      0.135496
     98 C33        -2.0870    2.3560    3.7130 c3        1 MOL     -0.303217
     99 C34         0.2230    1.5700    3.6330 c3        1 MOL     -0.303217
    100 H41         0.7880    4.6320    1.8340 hn        1 MOL      0.335745
    101 H42        -0.2400    1.8450    1.2100 h1        1 MOL      0.210651
    102 H43        -0.4050    3.6290    3.7270 hc        1 MOL      0.028199
    103 H44        -2.2190    2.3660    4.7930 hc        1 MOL      0.070102
    104 H45        -2.8660    2.8960    3.1640 hc        1 MOL      0.070102
    105 H46        -2.2850    1.3270    3.4110 hc        1 MOL      0.070102
    106 H47        -0.0740    0.6470    3.1350 hc        1 MOL      0.070102
    107 H48         1.2570    1.7500    3.3750 hc        1 MOL      0.070102
    108 H49         0.1490    1.6080    4.7200 hc        1 MOL      0.070102
    109 N10        -1.7630    2.6310   -0.2490 n         1 MOL     -0.482758
    110 C35        -3.0080    2.7780   -0.9830 c3        1 MOL      0.236931
    111 C36        -4.2690    2.3660   -0.2510 c         1 MOL      0.444522
    112 O17        -4.1810    1.8950    0.8710 o         1 MOL     -0.413292
    113 C37        -2.7640    2.0640   -2.3380 c3        1 MOL     -0.486123
    114 C38        -3.8960    2.1490   -3.3560 c         1 MOL      0.701542
    115 N11        -4.2070    3.2940   -3.9410 n         1 MOL     -0.795319
    116 O18        -4.6240    1.2220   -3.4530 o         1 MOL     -0.517447
    117 H50        -1.1350    1.8720   -0.4710 hn        1 MOL      0.289249
    118 H51        -3.1120    3.8410   -1.1890 h1        1 MOL      0.001846
    119 H52        -2.4330    1.0420   -2.1660 hc        1 MOL      0.161610
    120 H53        -1.9220    2.5690   -2.8050 hc        1 MOL      0.161610
    121 H54        -3.7150    4.1090   -3.5920 hn        1 MOL      0.364325
    122 H55        -5.1230    3.3150   -4.3450 hn        1 MOL      0.364325
    123 N12        -5.3990    2.5670   -0.9080 n         1 MOL     -0.529839
    124 C39        -6.6330    2.0900   -0.2710 c3        1 MOL      0.230828
    125 C40        -6.7540    0.5490   -0.2710 c         1 MOL      0.551812
    126 O19        -7.1950    0.0600    0.7310 o         1 MOL     -0.463118
    127 C41        -7.8570    2.6600   -0.9710 c3        1 MOL     -0.059842
    128 C42        -9.1660    2.1600   -0.4370 ca        1 MOL     -0.230517
    129 C43        -9.7690    2.8380    0.6470 ca        1 MOL      0.034665
    130 C44        -9.8800    1.0810   -1.0540 ca        1 MOL      0.034665
    131 C45       -11.1000    2.5360    1.1480 ca        1 MOL     -0.445390
    132 C46       -11.2280    0.8550   -0.7170 ca        1 MOL     -0.445390
    133 C47       -11.8200    1.5240    0.4060 ca        1 MOL      0.511962
    134 O20       -13.0860    1.2410    0.6790 oh        1 MOL     -0.526894
    135 H56        -5.3870    2.9060   -1.8510 hn        1 MOL      0.217774
    136 H57        -6.6950    2.4540    0.7430 h1        1 MOL      0.033384
    137 H58        -7.8260    2.4010   -2.0330 hc        1 MOL      0.045938
    138 H59        -7.9050    3.7500   -0.9260 hc        1 MOL      0.045938
    139 H60        -9.1990    3.5740    1.1870 ha        1 MOL      0.099086
    140 H61        -9.3980    0.5990   -1.8840 ha        1 MOL      0.099086
    141 H62       -11.4880    2.9800    2.0480 ha        1 MOL      0.188069
    142 H63       -11.8790    0.1820   -1.2650 ha        1 MOL      0.188069
    143 H64       -13.4100    0.7600   -0.0780 ho        1 MOL      0.360896
    144 N13        -6.2890   -0.1520   -1.3320 n         1 MOL     -0.138838
    145 C48        -6.2660   -1.6450   -1.3870 c3        1 MOL     -0.362894
    146 C49        -5.5200   -2.2130   -0.1750 c         1 MOL      0.511200
    147 O21        -5.9300   -3.1870    0.4550 o         1 MOL     -0.469308
    148 C50        -5.6430   -2.1000   -2.7780 c3        1 MOL      0.174976
    149 C51        -5.3760   -3.5830   -2.7880 c3        1 MOL     -0.376281
    150 C52        -6.6060   -4.4840   -2.5870 c         1 MOL      0.744018
    151 O22        -6.4440   -5.7010   -2.3020 o         1 MOL     -0.730549
    152 O23        -7.7830   -4.0450   -2.7460 o         1 MOL     -0.730549
    153 H65        -5.9760    0.2520   -2.1930 hn        1 MOL      0.140178
    154 H66        -7.2750   -2.0470   -1.3430 h1        1 MOL      0.166954
    155 H67        -4.7190   -1.5310   -2.9050 hc        1 MOL     -0.008269
    156 H68        -6.2820   -1.7920   -3.5960 hc        1 MOL     -0.008269
    157 H69        -4.5830   -3.8900   -2.1030 hc        1 MOL      0.075452
    158 H70        -4.9440   -3.8190   -3.7610 hc        1 MOL      0.075452
    159 N14        -4.4470   -1.5140    0.2550 n         1 MOL     -0.274104
    160 C53        -3.4410   -1.8630    1.3350 c3        1 MOL     -0.163121
    161 C54        -4.0070   -1.5010    2.7170 c         1 MOL      0.399172
    162 O24        -3.6450   -2.1190    3.7020 o         1 MOL     -0.528167
    163 C55        -2.1140   -1.2060    1.0430 c3        1 MOL      0.197558
    164 C56        -1.4680   -1.4250   -0.3350 c3        1 MOL      0.039919
    165 C57        -0.0980   -0.7580   -0.4320 c         1 MOL      0.452830
    166 O25         0.9390   -1.3930   -0.1220 o         1 MOL     -0.644983
    167 O26        -0.0290    0.3910   -0.9120 o         1 MOL     -0.644983
    168 H71        -4.3100   -0.6380   -0.2200 hn        1 MOL      0.205817
    169 H72        -3.4240   -2.9520    1.4310 h1        1 MOL      0.145771
    170 H73        -1.3640   -1.5430    1.7660 hc        1 MOL      0.013106
    171 H74        -2.2770   -0.1540    1.2800 hc        1 MOL      0.013106
    172 H75        -2.0310   -0.9040   -1.1170 hc        1 MOL     -0.019626
    173 H76        -1.5310   -2.4730   -0.6240 hc        1 MOL     -0.019626
    174 N15        -5.0130   -0.5950    2.7170 n         1 MOL      0.085696
    175 C58        -5.6990   -0.1260    3.8940 c3        1 MOL     -0.271139
    176 H77        -5.4320    0.9140    4.0790 h1        1 MOL      0.084314
    177 H78        -6.7750   -0.2040    3.7430 h1        1 MOL      0.084314
    178 H79        -5.4070   -0.7340    4.7510 h1        1 MOL      0.084314
    179 H80        -5.4050   -0.3080    1.8330 hn        1 MOL     -0.052191
    180 Ca1         2.5420    0.3230   -1.1530 Ca        1 MOL      1.721460
    181 O27         1.0060   -0.2350   -3.5390 oh        1 MOL     -0.840649
    182 H81         1.5580   -0.8600   -4.0180 ho        1 MOL      0.386778
    183 H82         0.1330   -0.6110   -3.5690 ho        1 MOL      0.386778
    184 O28         1.7830    2.6930   -2.3450 oh        1 MOL     -0.840649
    185 H83         1.4210    2.2470   -3.1100 ho        1 MOL      0.386778
    186 H84         2.1300    3.5120   -2.6810 ho        1 MOL      0.386778
@<TRIPOS>BOND
     1    1    2 1   
     2    1    4 1   
     3    1    5 1   
     4    1    6 1   
     5    2    3 2   
     6    2    7 1   
     7    7    8 1   
     8    7   15 1   
     9    8    9 1   
    10    8   11 1   
    11    8   16 1   
    12    9   10 2   
    13    9   19 1   
    14   11   12 1   
    15   11   17 1   
    16   11   18 1   
    17   12   13 1   
    18   12   14 1   
    19   19   20 1   
    20   19   27 1   
    21   20   21 1   
    22   20   23 1   
    23   20   28 1   
    24   21   22 2   
    25   21   38 1   
    26   23   24 1   
    27   23   25 1   
    28   23   29 1   
    29   24   26 1   
    30   24   30 1   
    31   24   31 1   
    32   25   32 1   
    33   25   33 1   
    34   25   34 1   
    35   26   35 1   
    36   26   36 1   
    37   26   37 1   
    38   38   39 1   
    39   38   46 1   
    40   39   40 1   
    41   39   42 1   
    42   39   47 1   
    43   40   41 2   
    44   40   50 1   
    45   42   43 1   
    46   42   48 1   
    47   42   49 1   
    48   43   44 1   
    49   43   45 1   
    50   50   51 1   
    51   50   54 1   
    52   51   52 1   
    53   51   55 1   
    54   51   56 1   
    55   52   53 2   
    56   52   57 1   
    57   57   58 1   
    58   57   65 1   
    59   58   59 1   
    60   58   61 1   
    61   58   66 1   
    62   59   60 2   
    63   59   69 1   
    64   61   62 1   
    65   61   67 1   
    66   61   68 1   
    67   62   63 1   
    68   62   64 1   
    69   69   70 1   
    70   69   73 1   
    71   70   71 1   
    72   70   74 1   
    73   70   75 1   
    74   71   72 2   
    75   71   76 1   
    76   76   77 1   
    77   76   85 1   
    78   77   78 1   
    79   77   80 1   
    80   77   86 1   
    81   78   79 2   
    82   78   93 1   
    83   80   81 1   
    84   80   87 1   
    85   80   88 1   
    86   81   82 1   
    87   81   89 1   
    88   81   90 1   
    89   82   83 1   
    90   82   84 2   
    91   83   91 1   
    92   83   92 1   
    93   93   94 1   
    94   93  100 1   
    95   94   95 1   
    96   94   97 1   
    97   94  101 1   
    98   95   96 2   
    99   95  109 1   
   100   97   98 1   
   101   97   99 1   
   102   97  102 1   
   103   98  103 1   
   104   98  104 1   
   105   98  105 1   
   106   99  106 1   
   107   99  107 1   
   108   99  108 1   
   109  109  110 1   
   110  109  117 1   
   111  110  111 1   
   112  110  113 1   
   113  110  118 1   
   114  111  112 2   
   115  111  123 1   
   116  113  114 1   
   117  113  119 1   
   118  113  120 1   
   119  114  115 1   
   120  114  116 2   
   121  115  121 1   
   122  115  122 1   
   123  123  124 1   
   124  123  135 1   
   125  124  125 1   
   126  124  127 1   
   127  124  136 1   
   128  125  126 2   
   129  125  144 1   
   130  127  128 1   
   131  127  137 1   
   132  127  138 1   
   133  128  129 ar  
   134  128  130 ar  
   135  129  131 ar  
   136  129  139 1   
   137  130  132 ar  
   138  130  140 1   
   139  131  133 ar  
   140  131  141 1   
   141  132  133 ar  
   142  132  142 1   
   143  133  134 1   
   144  134  143 1   
   145  144  145 1   
   146  144  153 1   
   147  145  146 1   
   148  145  148 1   
   149  145  154 1   
   150  146  147 2   
   151  146  159 1   
   152  148  149 1   
   153  148  155 1   
   154  148  156 1   
   155  149  150 1   
   156  149  157 1   
   157  149  158 1   
   158  150  151 1   
   159  150  152 1   
   160  159  160 1   
   161  159  168 1   
   162  160  161 1   
   163  160  163 1   
   164  160  169 1   
   165  161  162 2   
   166  161  174 1   
   167  163  164 1   
   168  163  170 1   
   169  163  171 1   
   170  164  165 1   
   171  164  172 1   
   172  164  173 1   
   173  165  166 1   
   174  165  167 1   
   175  174  175 1   
   176  174  179 1   
   177  175  176 1   
   178  175  177 1   
   179  175  178 1   
   180  181  182 1   
   181  181  183 1   
   182  184  185 1   
   183  184  186 1   
@<TRIPOS>SUBSTRUCTURE
     1 MOL         1 TEMP              0 ****  ****    0 ROOT
