@<TRIPOS>MOLECULE
MOL
  179   176     1     0     0
SMALL
resp


@<TRIPOS>ATOM
      1 C1          2.4000    3.0730    4.2620 c3        1 MOL     -0.371708
      2 C2          1.4790    2.9070    3.0190 c         1 MOL      0.776776
      3 O1          2.0050    2.9300    1.9370 o         1 MOL     -0.629571
      4 H1          3.4370    3.1620    3.9360 hc        1 MOL      0.079192
      5 H2          2.1140    3.9700    4.8090 hc        1 MOL      0.079192
      6 H3          2.2970    2.2030    4.9100 hc        1 MOL      0.079192
      7 N1          0.1900    2.8170    3.2470 n         1 MOL     -0.735715
      8 C3         -0.8570    2.6280    2.2300 c3        1 MOL      0.240101
      9 C4         -1.3900    3.9910    1.6870 c         1 MOL      0.520486
     10 O2         -2.6200    4.2190    1.7140 o         1 MOL     -0.484088
     11 C5         -1.9220    1.7860    2.8050 c3        1 MOL     -0.062487
     12 C6         -2.9870    1.4280    1.7770 c         1 MOL      0.545675
     13 O3         -4.1920    1.2380    2.1360 o         1 MOL     -0.651176
     14 O4         -2.6850    1.0870    0.5940 o         1 MOL     -0.651176
     15 H4         -0.0830    2.8560    4.2220 hn        1 MOL      0.343586
     16 H5         -0.3840    2.1230    1.3840 h1        1 MOL     -0.077719
     17 H6         -2.3510    2.3430    3.6380 hc        1 MOL      0.022701
     18 H7         -1.4570    0.8290    3.0630 hc        1 MOL      0.022701
     19 N2         -0.5580    4.7440    0.9440 n         1 MOL     -0.406180
     20 C7         -0.8570    6.1580    0.6150 c3        1 MOL      0.003984
     21 C8         -1.9460    6.2240   -0.5040 c         1 MOL      0.472024
     22 O5         -2.9260    6.9220   -0.4430 o         1 MOL     -0.503605
     23 C9          0.3730    6.8930    0.1410 c3        1 MOL     -0.252889
     24 C10         1.3740    6.9190    1.3690 c3        1 MOL      0.076241
     25 C11         2.7360    7.3010    0.7550 c3        1 MOL     -0.121722
     26 C12         3.8390    7.7340    1.7330 c3        1 MOL     -0.006227
     27 N3          4.4700    6.5620    2.3920 n4        1 MOL     -0.345212
     28 H8          0.3630    4.3710    0.7700 hn        1 MOL      0.374398
     29 H9         -1.2590    6.6080    1.5260 h1        1 MOL      0.095849
     30 H10         0.0410    7.9230    0.0160 hc        1 MOL      0.104744
     31 H11         0.7460    6.4080   -0.7650 hc        1 MOL      0.104744
     32 H12         1.4160    5.9300    1.8140 hc        1 MOL      0.008155
     33 H13         0.9980    7.5690    2.1540 hc        1 MOL      0.008155
     34 H14         2.5260    8.1740    0.1410 hc        1 MOL      0.081975
     35 H15         3.1850    6.6210    0.0290 hc        1 MOL      0.081975
     36 H16         3.4310    8.4190    2.4710 hx        1 MOL      0.091485
     37 H17         4.6120    8.2790    1.1740 hx        1 MOL      0.091485
     38 H18         4.9570    5.8940    1.7990 hn        1 MOL      0.330068
     39 H19         5.2140    6.9130    2.9780 hn        1 MOL      0.330068
     40 H20         3.7540    6.1160    2.9540 hn        1 MOL      0.330068
     41 N4         -1.7660    5.3610   -1.5620 n         1 MOL     -0.352830
     42 C13        -2.7240    4.9890   -2.6490 c3        1 MOL      0.017468
     43 C14        -4.1030    4.6070   -2.0960 c         1 MOL      0.431035
     44 O6         -5.1370    4.7950   -2.7350 o         1 MOL     -0.565701
     45 C15        -2.1660    3.8250   -3.5130 c3        1 MOL     -0.218953
     46 C16        -1.9060    2.6680   -2.6090 c         1 MOL      0.701310
     47 O7         -2.7860    1.8460   -2.2990 o         1 MOL     -0.707228
     48 O8         -0.6710    2.4800   -2.1970 o         1 MOL     -0.707228
     49 H21        -1.0360    4.6770   -1.4050 hn        1 MOL      0.185597
     50 H22        -2.9010    5.8000   -3.3610 h1        1 MOL      0.090910
     51 H23        -1.2810    4.1440   -4.0660 hc        1 MOL      0.079730
     52 H24        -2.9120    3.5350   -4.2620 hc        1 MOL      0.079730
     53 N5         -4.2490    4.1460   -0.8360 n         1 MOL      0.106124
     54 C17        -5.4940    3.9100   -0.1210 c3        1 MOL     -0.418947
     55 C18        -6.2110    2.5630   -0.4440 c         1 MOL      0.678091
     56 O9         -7.3740    2.4520   -0.0540 o         1 MOL     -0.593325
     57 H25        -3.4020    4.0110   -0.2970 hn        1 MOL      0.069840
     58 H26        -6.2290    4.6960   -0.3260 h1        1 MOL      0.157249
     59 H27        -5.2220    3.8730    0.9300 h1        1 MOL      0.157249
     60 N6         -5.5900    1.6550   -1.2250 n         1 MOL     -0.376957
     61 C19        -6.1490    0.3060   -1.6350 c3        1 MOL     -0.095617
     62 C20        -6.2970   -0.7550   -0.5690 c         1 MOL      0.264431
     63 O10        -6.8720   -1.7790   -0.9300 o         1 MOL     -0.460778
     64 C21        -5.4990   -0.2050   -2.9310 c3        1 MOL     -0.068103
     65 C22        -4.5640   -1.3570   -2.6940 c         1 MOL      0.555225
     66 N7         -4.8960   -2.5260   -3.1980 n         1 MOL     -0.691362
     67 O11        -3.5940   -1.2630   -1.9930 o         1 MOL     -0.661693
     68 H28        -4.6410    1.8700   -1.4870 hn        1 MOL      0.201593
     69 H29        -7.1670    0.6180   -1.8650 h1        1 MOL      0.154465
     70 H30        -4.9610    0.6150   -3.4210 hc        1 MOL      0.067868
     71 H31        -6.2080   -0.4430   -3.7230 hc        1 MOL      0.067868
     72 H32        -5.6930   -2.5800   -3.8200 hn        1 MOL      0.353699
     73 H33        -4.2810   -3.2890   -2.9530 hn        1 MOL      0.353699
     74 N8         -5.8840   -0.5400    0.6970 n         1 MOL     -0.010888
     75 C23        -6.1780   -1.4550    1.7670 c3        1 MOL     -0.442953
     76 C24        -5.0190   -2.4270    2.0910 c         1 MOL      0.550881
     77 O12        -5.1180   -3.2880    3.0120 o         1 MOL     -0.577569
     78 H34        -5.3790    0.3040    0.9440 hn        1 MOL      0.243462
     79 H35        -7.0390   -2.0910    1.5460 h1        1 MOL      0.186648
     80 H36        -6.3480   -0.8530    2.6620 h1        1 MOL      0.186648
     81 N9         -3.9830   -2.4840    1.2740 n         1 MOL     -0.298962
     82 C25        -2.8390   -3.4430    1.4290 c3        1 MOL      0.297069
     83 C26        -1.5000   -2.7010    1.2010 c         1 MOL      0.134922
     84 O13        -1.5720   -1.5770    0.7110 o         1 MOL     -0.524484
     85 C27        -3.0050   -4.5480    0.3830 c3        1 MOL      0.084235
     86 C28        -4.2090   -5.4040    0.5800 ca        1 MOL     -0.000205
     87 C29        -5.5280   -4.9780    0.1550 ca        1 MOL     -0.170468
     88 C30        -4.1450   -6.6950    1.0790 ca        1 MOL     -0.170468
     89 C31        -6.7040   -5.7530    0.4130 ca        1 MOL     -0.254375
     90 C32        -5.2820   -7.5580    1.2870 ca        1 MOL     -0.254375
     91 C33        -6.5560   -7.0990    0.9380 ca        1 MOL      0.334680
     92 O14        -7.5890   -7.8960    1.1370 oh        1 MOL     -0.442829
     93 H37        -3.9680   -1.8680    0.4830 hn        1 MOL      0.368604
     94 H38        -2.7390   -3.9230    2.4000 h1        1 MOL     -0.002657
     95 H39        -2.1000   -5.1520    0.3720 hc        1 MOL     -0.023841
     96 H40        -3.1770   -4.1270   -0.6090 hc        1 MOL     -0.023841
     97 H41        -5.7510   -3.9670   -0.1710 ha        1 MOL      0.104100
     98 H42        -3.2070   -7.1460    1.3810 ha        1 MOL      0.104100
     99 H43        -7.7150   -5.3920    0.2600 ha        1 MOL      0.146829
    100 H44        -5.1290   -8.5070    1.7800 ha        1 MOL      0.146829
    101 H45        -7.2960   -8.7390    1.4850 ho        1 MOL      0.332360
    102 N10        -0.3280   -3.2410    1.6080 n         1 MOL      0.015425
    103 C34         0.9700   -2.7040    1.3140 c3        1 MOL     -0.390078
    104 C35         1.9710   -3.7460    0.7990 c         1 MOL      0.591333
    105 O15         1.8290   -4.9060    1.0270 o         1 MOL     -0.562322
    106 C36         1.6100   -1.8840    2.4780 c3        1 MOL     -0.060462
    107 C37         1.9790   -2.7840    3.7180 c3        1 MOL     -0.036937
    108 C38         0.5550   -0.9330    2.9100 c3        1 MOL      0.165021
    109 C39         2.6700   -2.1180    4.8950 c3        1 MOL     -0.118093
    110 H46        -0.2570   -4.0780    2.1630 hn        1 MOL      0.199033
    111 H47         0.8970   -2.0220    0.4780 h1        1 MOL      0.133895
    112 H48         2.4740   -1.3520    2.0710 hc        1 MOL      0.047533
    113 H49         2.6650   -3.5620    3.3890 hc        1 MOL      0.044047
    114 H50         1.0530   -3.1900    4.1280 hc        1 MOL      0.044047
    115 H51        -0.3480   -1.3920    3.2940 hc        1 MOL      0.004188
    116 H52         0.9300   -0.3610    3.7550 hc        1 MOL      0.004188
    117 H53         0.3000   -0.2810    2.0660 hc        1 MOL      0.004188
    118 H54         3.0440   -2.8980    5.5650 hc        1 MOL      0.028591
    119 H55         3.5200   -1.5140    4.5770 hc        1 MOL      0.028591
    120 H56         1.8580   -1.5590    5.3560 hc        1 MOL      0.028591
    121 N11         3.0020   -3.3230    0.0510 n         1 MOL     -0.226867
    122 C40         3.9910   -4.1020   -0.7150 c3        1 MOL      0.136398
    123 C41         5.4150   -3.6100   -0.4370 c         1 MOL      0.355375
    124 O16         5.6110   -2.6350    0.3320 o         1 MOL     -0.444562
    125 C42         3.7520   -4.0310   -2.2340 c3        1 MOL     -0.247603
    126 O17         3.9780   -2.6920   -2.6790 oh        1 MOL     -0.492056
    127 H57         3.0560   -2.3160    0.0940 hn        1 MOL      0.131055
    128 H58         3.9100   -5.1700   -0.5040 h1        1 MOL      0.061408
    129 H59         2.6950   -4.2740   -2.4110 h1        1 MOL      0.132802
    130 H60         4.3850   -4.6810   -2.8410 h1        1 MOL      0.132802
    131 H61         3.5540   -2.5560   -3.5200 ho        1 MOL      0.402617
    132 N12         6.4720   -4.2610   -0.9220 n         1 MOL     -0.321819
    133 C43         7.7870   -3.9110   -0.4530 c3        1 MOL      0.092747
    134 C44         8.2870   -2.5230   -0.9060 c         1 MOL      0.425393
    135 O18         8.8670   -1.7920   -0.0460 o         1 MOL     -0.497214
    136 C45         8.6830   -5.0390   -0.9710 c3        1 MOL     -0.337134
    137 H62         6.3460   -5.0360   -1.5540 hn        1 MOL      0.251614
    138 H63         7.8430   -4.0090    0.6350 h1        1 MOL      0.112946
    139 H64         9.7120   -4.8900   -0.6340 hc        1 MOL      0.099937
    140 H65         8.3850   -5.9490   -0.4450 hc        1 MOL      0.099937
    141 H66         8.7500   -5.0310   -2.0570 hc        1 MOL      0.099937
    142 N13         7.9660   -2.2230   -2.1470 n         1 MOL     -0.250627
    143 C46         7.9690   -0.8290   -2.6420 c3        1 MOL     -0.189274
    144 C47         7.3380    0.2650   -1.7190 c         1 MOL      0.453173
    145 O19         7.8670    1.3700   -1.4800 o         1 MOL     -0.498281
    146 C48         7.3530   -0.8570   -4.0920 c3        1 MOL     -0.124959
    147 H67         7.5430   -2.9460   -2.7000 hn        1 MOL      0.239969
    148 H68         9.0370   -0.6720   -2.7270 h1        1 MOL      0.145374
    149 H69         7.8190   -1.4940   -4.8440 hc        1 MOL      0.057817
    150 H70         6.2930   -1.1180   -4.1210 hc        1 MOL      0.057817
    151 H71         7.4470    0.0800   -4.6310 hc        1 MOL      0.057817
    152 N14         6.1050    0.0180   -1.2460 n         1 MOL     -0.164937
    153 C49         5.3780    0.9210   -0.3280 c3        1 MOL     -0.273095
    154 C50         5.9630    1.0070    1.0680 c         1 MOL      0.458126
    155 O20         5.8790    2.0880    1.6910 o         1 MOL     -0.579072
    156 C51         3.9090    0.4830   -0.2880 c3        1 MOL      0.186555
    157 C52         3.2530    0.4660   -1.6880 c3        1 MOL     -0.038013
    158 C53         1.7190    0.2170   -1.5260 c         1 MOL      0.760335
    159 O21         1.0230    0.4720   -0.5450 o         1 MOL     -0.742950
    160 O22         1.1110   -0.2610   -2.5170 o         1 MOL     -0.742950
    161 H72         5.8330   -0.9610   -1.2820 hn        1 MOL      0.236602
    162 H73         5.3720    1.9240   -0.7600 h1        1 MOL      0.162348
    163 H74         3.4000    1.1900    0.3690 hc        1 MOL      0.014217
    164 H75         3.7080   -0.4510    0.2270 hc        1 MOL      0.014217
    165 H76         3.6830   -0.3590   -2.2510 hc        1 MOL     -0.040237
    166 H77         3.4330    1.4220   -2.1810 hc        1 MOL     -0.040237
    167 N15         6.6780    0.0090    1.5490 n         1 MOL     -0.032165
    168 C54         7.4750   -0.0470    2.7610 c3        1 MOL     -0.269704
    169 H78         8.4580   -0.4550    2.5300 h1        1 MOL      0.107448
    170 H79         7.5850    0.9560    3.1710 h1        1 MOL      0.107448
    171 H80         6.9800   -0.6870    3.4930 h1        1 MOL      0.107448
    172 H81         6.7560   -0.7950    0.9490 hn        1 MOL      0.100615
    173 Ca1        -1.3230    0.0040   -1.3370 Ca        1 MOL      1.704380
    174 O23        -0.5760   -2.4700   -2.1340 oh        1 MOL     -0.738748
    175 H82        -0.8310   -3.3930   -2.1120 ho        1 MOL      0.370085
    176 H83        -0.1800   -2.3510   -2.9960 ho        1 MOL      0.370085
    177 O24        -1.2810   -0.2450   -4.3090 oh        1 MOL     -0.738748
    178 H84        -1.8980   -0.7940   -4.7950 ho        1 MOL      0.370085
    179 H85        -0.5060   -0.2110   -4.8690 ho        1 MOL      0.370085
@<TRIPOS>BOND
     1    1    2 1   
     2    1    4 1   
     3    1    5 1   
     4    1    6 1   
     5    2    3 2   
     6    2    7 1   
     7    7    8 1   
     8    7   15 1   
     9    8    9 1   
    10    8   11 1   
    11    8   16 1   
    12    9   10 2   
    13    9   19 1   
    14   11   12 1   
    15   11   17 1   
    16   11   18 1   
    17   12   13 1   
    18   12   14 1   
    19   19   20 1   
    20   19   28 1   
    21   20   21 1   
    22   20   23 1   
    23   20   29 1   
    24   21   22 2   
    25   21   41 1   
    26   23   24 1   
    27   23   30 1   
    28   23   31 1   
    29   24   25 1   
    30   24   32 1   
    31   24   33 1   
    32   25   26 1   
    33   25   34 1   
    34   25   35 1   
    35   26   27 1   
    36   26   36 1   
    37   26   37 1   
    38   27   38 1   
    39   27   39 1   
    40   27   40 1   
    41   41   42 1   
    42   41   49 1   
    43   42   43 1   
    44   42   45 1   
    45   42   50 1   
    46   43   44 2   
    47   43   53 1   
    48   45   46 1   
    49   45   51 1   
    50   45   52 1   
    51   46   47 1   
    52   46   48 1   
    53   53   54 1   
    54   53   57 1   
    55   54   55 1   
    56   54   58 1   
    57   54   59 1   
    58   55   56 2   
    59   55   60 1   
    60   60   61 1   
    61   60   68 1   
    62   61   62 1   
    63   61   64 1   
    64   61   69 1   
    65   62   63 2   
    66   62   74 1   
    67   64   65 1   
    68   64   70 1   
    69   64   71 1   
    70   65   66 1   
    71   65   67 2   
    72   66   72 1   
    73   66   73 1   
    74   74   75 1   
    75   74   78 1   
    76   75   76 1   
    77   75   79 1   
    78   75   80 1   
    79   76   77 2   
    80   76   81 1   
    81   81   82 1   
    82   81   93 1   
    83   82   83 1   
    84   82   85 1   
    85   82   94 1   
    86   83   84 2   
    87   83  102 1   
    88   85   86 1   
    89   85   95 1   
    90   85   96 1   
    91   86   87 ar  
    92   86   88 ar  
    93   87   89 ar  
    94   87   97 1   
    95   88   90 ar  
    96   88   98 1   
    97   89   91 ar  
    98   89   99 1   
    99   90   91 ar  
   100   90  100 1   
   101   91   92 1   
   102   92  101 1   
   103  102  103 1   
   104  102  110 1   
   105  103  104 1   
   106  103  106 1   
   107  103  111 1   
   108  104  105 2   
   109  104  121 1   
   110  106  107 1   
   111  106  108 1   
   112  106  112 1   
   113  107  109 1   
   114  107  113 1   
   115  107  114 1   
   116  108  115 1   
   117  108  116 1   
   118  108  117 1   
   119  109  118 1   
   120  109  119 1   
   121  109  120 1   
   122  121  122 1   
   123  121  127 1   
   124  122  123 1   
   125  122  125 1   
   126  122  128 1   
   127  123  124 2   
   128  123  132 1   
   129  125  126 1   
   130  125  129 1   
   131  125  130 1   
   132  126  131 1   
   133  132  133 1   
   134  132  137 1   
   135  133  134 1   
   136  133  136 1   
   137  133  138 1   
   138  134  135 2   
   139  134  142 1   
   140  136  139 1   
   141  136  140 1   
   142  136  141 1   
   143  142  143 1   
   144  142  147 1   
   145  143  144 1   
   146  143  146 1   
   147  143  148 1   
   148  144  145 2   
   149  144  152 1   
   150  146  149 1   
   151  146  150 1   
   152  146  151 1   
   153  152  153 1   
   154  152  161 1   
   155  153  154 1   
   156  153  156 1   
   157  153  162 1   
   158  154  155 2   
   159  154  167 1   
   160  156  157 1   
   161  156  163 1   
   162  156  164 1   
   163  157  158 1   
   164  157  165 1   
   165  157  166 1   
   166  158  159 1   
   167  158  160 1   
   168  167  168 1   
   169  167  172 1   
   170  168  169 1   
   171  168  170 1   
   172  168  171 1   
   173  174  175 1   
   174  174  176 1   
   175  177  178 1   
   176  177  179 1   
@<TRIPOS>SUBSTRUCTURE
     1 MOL         1 TEMP              0 ****  ****    0 ROOT
