@<TRIPOS>MOLECULE
MOL
  172   171     1     0     0
SMALL
resp


@<TRIPOS>ATOM
      1 C1          0.5990    3.2710    5.4790 c3        1 MOL     -0.476923
      2 C2         -0.1040    3.3610    4.1350 c         1 MOL      0.636799
      3 O1          0.3770    4.1060    3.2460 o         1 MOL     -0.514549
      4 H1          0.2560    2.3820    6.0090 hc        1 MOL      0.123703
      5 H2          1.6750    3.2080    5.3230 hc        1 MOL      0.123703
      6 H3          0.3680    4.1570    6.0710 hc        1 MOL      0.123703
      7 N1         -1.2760    2.6450    4.0600 n         1 MOL     -0.549094
      8 C3         -1.8490    2.4170    2.7660 c3        1 MOL      0.174961
      9 C4         -2.3870    3.6470    2.1090 c         1 MOL      0.502064
     10 O2         -3.2300    4.3110    2.6980 o         1 MOL     -0.589767
     11 C5         -2.9330    1.3030    3.0810 c3        1 MOL     -0.168603
     12 C6         -3.6890    0.9160    1.7850 c         1 MOL      0.867894
     13 O3         -4.8980    0.5120    1.8230 o         1 MOL     -0.807992
     14 O4         -3.1800    0.9580    0.6360 o         1 MOL     -0.807992
     15 H4         -1.6670    2.0560    4.7830 hn        1 MOL      0.302942
     16 H5         -1.0760    1.9490    2.1660 h1        1 MOL      0.025316
     17 H6         -3.7020    1.5390    3.8280 hc        1 MOL      0.036991
     18 H7         -2.4420    0.3740    3.3380 hc        1 MOL      0.036991
     19 N2         -1.7560    4.0500    0.9850 n         1 MOL     -0.173430
     20 C7         -1.9150    5.4480    0.5190 c3        1 MOL     -0.001449
     21 C8         -2.9710    5.4440   -0.6120 c         1 MOL      0.297727
     22 O5         -3.2910    6.5200   -1.1750 o         1 MOL     -0.525020
     23 C9         -0.6100    5.8590   -0.0150 c3        1 MOL      0.004567
     24 H8         -1.0420    3.5070    0.5140 hn        1 MOL      0.239709
     25 H9         -2.0880    6.1290    1.3550 h1        1 MOL      0.092092
     26 H10        -0.2530    5.1580   -0.7740 hc        1 MOL      0.004314
     27 H11        -0.6260    6.8570   -0.4460 hc        1 MOL      0.004314
     28 H12         0.0960    5.8280    0.8140 hc        1 MOL      0.004314
     29 N3         -3.4830    4.2550   -1.1060 n         1 MOL     -0.081072
     30 C10        -4.4520    4.0400   -2.0960 c3        1 MOL     -0.198383
     31 C11        -5.7040    3.2550   -1.5870 c         1 MOL      0.526842
     32 O6         -6.6910    3.0340   -2.2830 o         1 MOL     -0.571749
     33 C12        -3.8010    3.5610   -3.3860 c3        1 MOL      0.058080
     34 C13        -3.2100    2.1760   -3.4730 c         1 MOL      0.601230
     35 O7         -3.2600    1.4150   -2.4870 o         1 MOL     -0.691195
     36 O8         -2.4930    1.9460   -4.5020 o         1 MOL     -0.691195
     37 H13        -3.0250    3.4230   -0.7590 hn        1 MOL      0.146366
     38 H14        -4.9880    4.9680   -2.2750 h1        1 MOL      0.088711
     39 H15        -3.0240    4.2570   -3.7050 hc        1 MOL      0.005321
     40 H16        -4.4430    3.5780   -4.2650 hc        1 MOL      0.005321
     41 N4         -5.7170    2.9160   -0.3060 n         1 MOL     -0.135533
     42 C14        -6.8270    2.4570    0.4980 c3        1 MOL     -0.433635
     43 C15        -7.2600    0.9850    0.1090 c         1 MOL      0.684784
     44 O9         -8.3480    0.5640    0.3960 o         1 MOL     -0.637988
     45 H17        -4.9040    3.1530    0.2390 hn        1 MOL      0.155368
     46 H18        -7.7190    3.0260    0.2460 h1        1 MOL      0.168781
     47 H19        -6.6170    2.4590    1.5640 h1        1 MOL      0.168781
     48 N5         -6.4430    0.2300   -0.5860 n         1 MOL     -0.222897
     49 C16        -6.8360   -1.0780   -1.1000 c3        1 MOL     -0.180293
     50 C17        -6.8330   -2.2250   -0.0960 c         1 MOL      0.516388
     51 O10        -7.1730   -3.3770   -0.4110 o         1 MOL     -0.562339
     52 C18        -6.2380   -1.3290   -2.4750 c3        1 MOL      0.040174
     53 C19        -4.8920   -1.8370   -2.4270 c         1 MOL      0.532661
     54 N6         -4.4890   -2.3760   -3.5540 n         1 MOL     -0.763665
     55 O11        -4.1890   -1.8950   -1.4490 o         1 MOL     -0.443958
     56 H20        -5.4890    0.5450   -0.6370 hn        1 MOL      0.102953
     57 H21        -7.9010   -1.0070   -1.3430 h1        1 MOL      0.120249
     58 H22        -6.2970   -0.4760   -3.1450 hc        1 MOL      0.033908
     59 H23        -6.8890   -2.0480   -2.9610 hc        1 MOL      0.033908
     60 H24        -4.9390   -2.2670   -4.4530 hn        1 MOL      0.354096
     61 H25        -3.5380   -2.7000   -3.6120 hn        1 MOL      0.354096
     62 N7         -6.3520   -1.9500    1.1250 n         1 MOL     -0.224501
     63 C20        -6.1810   -2.9060    2.1550 c3        1 MOL     -0.235475
     64 C21        -5.0910   -4.0000    2.0120 c         1 MOL      0.550298
     65 O12        -5.0360   -4.9430    2.7800 o         1 MOL     -0.576604
     66 H26        -5.9850   -1.0330    1.3300 hn        1 MOL      0.302981
     67 H27        -7.1500   -3.3640    2.3570 h1        1 MOL      0.107510
     68 H28        -5.9590   -2.3090    3.0400 h1        1 MOL      0.107510
     69 N8         -4.1550   -3.8590    1.0400 n         1 MOL     -0.204808
     70 C22        -2.8190   -4.4950    1.0070 c3        1 MOL     -0.007883
     71 C23        -1.6890   -3.4920    0.9970 c         1 MOL      0.656190
     72 O13        -1.8860   -2.3190    0.7250 o         1 MOL     -0.631326
     73 C24        -2.6120   -5.5040   -0.1200 c3        1 MOL      0.287488
     74 C25        -3.5880   -6.6270    0.0180 c3        1 MOL     -0.341601
     75 O14        -2.8730   -4.9990   -1.3380 oh        1 MOL     -0.514805
     76 H29        -4.3300   -3.1740    0.3100 hn        1 MOL      0.151473
     77 H30        -2.5710   -4.9870    1.9540 h1        1 MOL      0.060437
     78 H31        -1.6230   -5.9610   -0.1210 h1        1 MOL     -0.003615
     79 H32        -2.9230   -5.7300   -1.9640 ho        1 MOL      0.369458
     80 H33        -3.3740   -6.9830    1.0270 hc        1 MOL      0.077565
     81 H34        -4.6450   -6.3860   -0.0950 hc        1 MOL      0.077565
     82 H35        -3.3770   -7.4280   -0.7010 hc        1 MOL      0.077565
     83 N9         -0.4360   -3.9680    1.3470 n         1 MOL     -0.546079
     84 C26         0.7500   -3.0830    1.2860 c3        1 MOL      0.099380
     85 C27         1.4740   -3.2670   -0.0720 c         1 MOL      0.482837
     86 O15         1.8610   -4.3680   -0.3590 o         1 MOL     -0.573645
     87 C28         1.6620   -3.3030    2.5770 c3        1 MOL      0.018111
     88 C29         1.0680   -2.6520    3.8320 c3        1 MOL      0.039545
     89 C30         3.0760   -2.8650    2.2340 c3        1 MOL     -0.081472
     90 C31         1.6510   -3.0860    5.1000 c3        1 MOL     -0.142706
     91 H36        -0.2940   -4.9090    1.6890 hn        1 MOL      0.274766
     92 H37         0.5180   -2.0200    1.3520 h1        1 MOL      0.019917
     93 H38         1.7440   -4.3650    2.8020 hc        1 MOL      0.024311
     94 H39         0.0190   -2.9660    3.8710 hc        1 MOL      0.008984
     95 H40         1.0230   -1.5680    3.8590 hc        1 MOL      0.008984
     96 H41         3.6980   -3.0740    3.1040 hc        1 MOL      0.004165
     97 H42         3.4670   -3.3700    1.3520 hc        1 MOL      0.004165
     98 H43         3.0870   -1.7980    2.0500 hc        1 MOL      0.004165
     99 H44         2.7250   -2.8970    5.1040 hc        1 MOL      0.025131
    100 H45         1.2960   -2.5790    6.0030 hc        1 MOL      0.025131
    101 H46         1.6510   -4.1770    5.1220 hc        1 MOL      0.025131
    102 N10         1.6610   -2.1700   -0.8220 n         1 MOL     -0.216780
    103 C32         2.6680   -2.0860   -1.9310 c3        1 MOL     -0.025342
    104 C33         4.0690   -1.7100   -1.3040 c         1 MOL      0.534641
    105 O16         4.0860   -1.2470   -0.1600 o         1 MOL     -0.361401
    106 C34         2.1210   -0.9110   -2.8170 c3        1 MOL     -0.338575
    107 C35         0.7210   -1.1470   -3.2840 c         1 MOL      0.895618
    108 O17         0.4200   -2.1640   -3.9610 o         1 MOL     -0.732614
    109 O18        -0.1470   -0.3250   -3.0010 o         1 MOL     -0.732614
    110 H47         1.3230   -1.3150   -0.3980 hn        1 MOL      0.135759
    111 H48         2.7110   -3.0170   -2.4970 h1        1 MOL      0.061131
    112 H49         2.7790   -0.6840   -3.6460 hc        1 MOL      0.096435
    113 H50         2.1970   -0.1170   -2.0740 hc        1 MOL      0.096435
    114 N11         5.1490   -1.6660   -2.0880 n         1 MOL     -0.665344
    115 C36         6.4980   -1.2470   -1.5020 c3        1 MOL      0.317503
    116 C37         6.6490    0.2110   -0.9540 c         1 MOL      0.320069
    117 O19         7.1940    0.3020    0.1930 o         1 MOL     -0.466545
    118 C38         7.6470   -1.6050   -2.4610 c3        1 MOL     -0.145166
    119 C39         9.0040   -1.3430   -1.7580 ca        1 MOL      0.099218
    120 C40         9.2710   -2.0970   -0.6080 ca        1 MOL     -0.256762
    121 C41         9.8510   -0.2390   -2.0420 ca        1 MOL     -0.256762
    122 C42        10.3980   -1.8980    0.1630 ca        1 MOL     -0.001376
    123 C43        10.9410    0.0630   -1.1920 ca        1 MOL     -0.001376
    124 C44        11.2950   -0.8780   -0.1690 ca        1 MOL     -0.198211
    125 H51         5.1660   -1.9580   -3.0600 hn        1 MOL      0.337651
    126 H52         6.5850   -1.9720   -0.6900 h1        1 MOL      0.055240
    127 H53         7.6160   -0.9300   -3.3230 hc        1 MOL      0.053167
    128 H54         7.5310   -2.5870   -2.9130 hc        1 MOL      0.053167
    129 H55         8.6620   -2.9820   -0.4250 ha        1 MOL      0.130784
    130 H56         9.5340    0.4270   -2.8350 ha        1 MOL      0.130784
    131 H57        10.6470   -2.5440    0.9940 ha        1 MOL      0.093791
    132 H58        11.4740    0.9980   -1.3100 ha        1 MOL      0.093791
    133 H59        12.1980   -0.7260    0.4130 ha        1 MOL      0.113419
    134 N12         6.1660    1.2590   -1.5860 n         1 MOL      0.010113
    135 C45         6.1900    2.5780   -1.0090 c3        1 MOL     -0.015479
    136 C46         5.5240    2.6890    0.3620 c         1 MOL      0.236930
    137 O20         5.9590    3.4770    1.1940 o         1 MOL     -0.496235
    138 C47         5.5530    3.5340   -1.9850 c3        1 MOL     -0.074637
    139 C48         5.9560    2.7780   -3.2780 c3        1 MOL      0.158706
    140 C49         5.7220    1.2940   -2.9880 c3        1 MOL     -0.152798
    141 H60         7.2060    2.8970   -0.7930 h1        1 MOL      0.071157
    142 H61         4.4650    3.5080   -1.9130 hc        1 MOL      0.062419
    143 H62         5.9430    4.5440   -2.0470 hc        1 MOL      0.062419
    144 H63         5.6120    3.2930   -4.1750 hc        1 MOL     -0.028966
    145 H64         7.0370    2.8380   -3.3720 hc        1 MOL     -0.028966
    146 H65         4.6660    1.0540   -3.1030 h1        1 MOL      0.052115
    147 H66         6.2750    0.6080   -3.6320 h1        1 MOL      0.052115
    148 N13         4.5480    1.8680    0.6790 n         1 MOL     -0.049471
    149 C50         3.8220    1.7110    1.9480 c3        1 MOL     -0.017793
    150 C51         4.5230    0.8860    2.9850 c         1 MOL      0.430210
    151 O21         4.6170    1.3440    4.1040 o         1 MOL     -0.558587
    152 C52         2.3830    1.1340    1.5540 c3        1 MOL     -0.182449
    153 C53         1.6820    1.9590    0.4150 c3        1 MOL     -0.031932
    154 C54         0.3800    1.2590    0.0090 c         1 MOL      0.497977
    155 O22         0.2500    0.0140    0.0860 o         1 MOL     -0.593758
    156 O23        -0.5150    1.9110   -0.5550 o         1 MOL     -0.593758
    157 H67         4.3060    1.2400   -0.0700 hn        1 MOL      0.130400
    158 H68         3.6150    2.6980    2.3560 h1        1 MOL      0.097024
    159 H69         1.7570    1.0460    2.4440 hc        1 MOL      0.084226
    160 H70         2.3580    0.1160    1.1560 hc        1 MOL      0.084226
    161 H71         2.2740    2.1700   -0.4730 hc        1 MOL      0.010312
    162 H72         1.3790    2.9010    0.8720 hc        1 MOL      0.010312
    163 N14         5.1910   -0.1840    2.6510 n         1 MOL     -0.011127
    164 C55         6.0590   -0.8680    3.6190 c3        1 MOL     -0.201503
    165 H73         5.5290   -1.7210    4.0430 h1        1 MOL      0.076820
    166 H74         6.9620   -1.2160    3.1150 h1        1 MOL      0.076820
    167 H75         6.3310   -0.1770    4.4160 h1        1 MOL      0.076820
    168 H76         5.1480   -0.5430    1.7100 hn        1 MOL      0.075678
    169 Ca1        -1.9990   -0.3890   -1.1990 Ca        1 MOL      1.711571
    170 O24        -1.5630   -2.6530   -2.4170 oh        1 MOL     -0.929458
    171 H77        -0.7600   -2.5500   -2.9460 ho        1 MOL      0.400583
    172 H78        -1.7150   -3.5950   -2.3900 ho        1 MOL      0.400583
@<TRIPOS>BOND
     1    1    2 1   
     2    1    4 1   
     3    1    5 1   
     4    1    6 1   
     5    2    3 2   
     6    2    7 1   
     7    7    8 1   
     8    7   15 1   
     9    8    9 1   
    10    8   11 1   
    11    8   16 1   
    12    9   10 2   
    13    9   19 1   
    14   11   12 1   
    15   11   17 1   
    16   11   18 1   
    17   12   13 1   
    18   12   14 1   
    19   19   20 1   
    20   19   24 1   
    21   20   21 1   
    22   20   23 1   
    23   20   25 1   
    24   21   22 2   
    25   21   29 1   
    26   23   26 1   
    27   23   27 1   
    28   23   28 1   
    29   29   30 1   
    30   29   37 1   
    31   30   31 1   
    32   30   33 1   
    33   30   38 1   
    34   31   32 2   
    35   31   41 1   
    36   33   34 1   
    37   33   39 1   
    38   33   40 1   
    39   34   35 1   
    40   34   36 1   
    41   41   42 1   
    42   41   45 1   
    43   42   43 1   
    44   42   46 1   
    45   42   47 1   
    46   43   44 2   
    47   43   48 1   
    48   48   49 1   
    49   48   56 1   
    50   49   50 1   
    51   49   52 1   
    52   49   57 1   
    53   50   51 2   
    54   50   62 1   
    55   52   53 1   
    56   52   58 1   
    57   52   59 1   
    58   53   54 1   
    59   53   55 2   
    60   54   60 1   
    61   54   61 1   
    62   62   63 1   
    63   62   66 1   
    64   63   64 1   
    65   63   67 1   
    66   63   68 1   
    67   64   65 2   
    68   64   69 1   
    69   69   70 1   
    70   69   76 1   
    71   70   71 1   
    72   70   73 1   
    73   70   77 1   
    74   71   72 2   
    75   71   83 1   
    76   73   74 1   
    77   73   75 1   
    78   73   78 1   
    79   74   80 1   
    80   74   81 1   
    81   74   82 1   
    82   75   79 1   
    83   83   84 1   
    84   83   91 1   
    85   84   85 1   
    86   84   87 1   
    87   84   92 1   
    88   85   86 2   
    89   85  102 1   
    90   87   88 1   
    91   87   89 1   
    92   87   93 1   
    93   88   90 1   
    94   88   94 1   
    95   88   95 1   
    96   89   96 1   
    97   89   97 1   
    98   89   98 1   
    99   90   99 1   
   100   90  100 1   
   101   90  101 1   
   102  102  103 1   
   103  102  110 1   
   104  103  104 1   
   105  103  106 1   
   106  103  111 1   
   107  104  105 2   
   108  104  114 1   
   109  106  107 1   
   110  106  112 1   
   111  106  113 1   
   112  107  108 1   
   113  107  109 1   
   114  114  115 1   
   115  114  125 1   
   116  115  116 1   
   117  115  118 1   
   118  115  126 1   
   119  116  117 2   
   120  116  134 1   
   121  118  119 1   
   122  118  127 1   
   123  118  128 1   
   124  119  120 ar  
   125  119  121 ar  
   126  120  122 ar  
   127  120  129 1   
   128  121  123 ar  
   129  121  130 1   
   130  122  124 ar  
   131  122  131 1   
   132  123  124 ar  
   133  123  132 1   
   134  124  133 1   
   135  134  135 1   
   136  134  140 1   
   137  135  136 1   
   138  135  138 1   
   139  135  141 1   
   140  136  137 2   
   141  136  148 1   
   142  138  139 1   
   143  138  142 1   
   144  138  143 1   
   145  139  140 1   
   146  139  144 1   
   147  139  145 1   
   148  140  146 1   
   149  140  147 1   
   150  148  149 1   
   151  148  157 1   
   152  149  150 1   
   153  149  152 1   
   154  149  158 1   
   155  150  151 2   
   156  150  163 1   
   157  152  153 1   
   158  152  159 1   
   159  152  160 1   
   160  153  154 1   
   161  153  161 1   
   162  153  162 1   
   163  154  155 1   
   164  154  156 1   
   165  163  164 1   
   166  163  168 1   
   167  164  165 1   
   168  164  166 1   
   169  164  167 1   
   170  170  171 1   
   171  170  172 1   
@<TRIPOS>SUBSTRUCTURE
     1 MOL         1 TEMP              0 ****  ****    0 ROOT
