@<TRIPOS>MOLECULE
MOL
  175   173     1     0     0
SMALL
resp


@<TRIPOS>ATOM
      1 C1          0.7780    3.8000    5.5220 c3        1 MOL     -0.346859
      2 C2          0.2170    3.7690    4.0920 c         1 MOL      0.711289
      3 O1          0.8720    4.1920    3.1690 o         1 MOL     -0.553128
      4 H1          1.3020    2.8660    5.7260 hc        1 MOL      0.080224
      5 H2          1.4710    4.6350    5.6230 hc        1 MOL      0.080224
      6 H3         -0.0410    3.9180    6.2310 hc        1 MOL      0.080224
      7 N1         -1.0380    3.4320    3.9520 n         1 MOL     -0.577246
      8 C3         -1.8060    3.2350    2.7220 c3        1 MOL      0.015134
      9 C4         -1.8990    4.5570    1.9000 c         1 MOL      0.720446
     10 O2         -2.2980    5.5940    2.4780 o         1 MOL     -0.594226
     11 C5         -3.1900    2.7480    3.1030 c3        1 MOL     -0.435559
     12 C6         -4.0160    2.5050    1.8330 c         1 MOL      0.736198
     13 O3         -3.4480    2.1930    0.7510 o         1 MOL     -0.669732
     14 O4         -5.3140    2.4720    1.9050 o         1 MOL     -0.669732
     15 H4         -1.5270    3.2160    4.8180 hn        1 MOL      0.316300
     16 H5         -1.2990    2.4820    2.1130 h1        1 MOL      0.116244
     17 H6         -3.6260    3.4890    3.7670 hc        1 MOL      0.109766
     18 H7         -3.1600    1.8310    3.6810 hc        1 MOL      0.109766
     19 N2         -1.7030    4.5590    0.5640 n         1 MOL     -0.588357
     20 C7         -1.9140    5.7070   -0.3030 c3        1 MOL      0.387259
     21 C8         -3.0320    5.3560   -1.3560 c         1 MOL      0.313966
     22 O5         -3.1580    6.0450   -2.3750 o         1 MOL     -0.537972
     23 C9         -0.5690    6.1870   -0.7980 c3        1 MOL     -0.355265
     24 H8         -1.5420    3.6600    0.1450 hn        1 MOL      0.352417
     25 H9         -2.2780    6.4850    0.3760 h1        1 MOL     -0.008683
     26 H10        -0.7810    6.9880   -1.4970 hc        1 MOL      0.086144
     27 H11         0.1240    6.4160    0.0150 hc        1 MOL      0.086144
     28 H12        -0.1550    5.4950   -1.5230 hc        1 MOL      0.086144
     29 N3         -3.7240    4.2190   -1.2790 n         1 MOL     -0.231942
     30 C10        -4.6380    3.8250   -2.3490 c3        1 MOL     -0.040564
     31 C11        -5.8060    2.8850   -1.9320 c         1 MOL      0.398272
     32 O6         -6.7370    2.8780   -2.6730 o         1 MOL     -0.565701
     33 C12        -3.9340    3.1380   -3.4980 c3        1 MOL      0.043635
     34 C13        -3.2670    1.8190   -3.2020 c         1 MOL      0.646415
     35 O7         -3.5130    1.1060   -2.2250 o         1 MOL     -0.696784
     36 O8         -2.4420    1.4580   -4.0570 o         1 MOL     -0.696784
     37 H13        -3.5720    3.5870   -0.5120 hn        1 MOL      0.162484
     38 H14        -5.0650    4.7450   -2.7540 h1        1 MOL      0.093324
     39 H15        -3.1670    3.7780   -3.9320 hc        1 MOL      0.005621
     40 H16        -4.5290    3.0650   -4.4130 hc        1 MOL      0.005621
     41 N4         -5.9720    2.3000   -0.7390 n         1 MOL     -0.107658
     42 C14        -7.2090    1.6360   -0.2810 c3        1 MOL     -0.120559
     43 C15        -7.3550    0.1550   -0.7790 c         1 MOL      0.342676
     44 O9         -8.5370   -0.2390   -0.8130 o         1 MOL     -0.589713
     45 H17        -5.1940    2.3230   -0.0980 hn        1 MOL      0.085963
     46 H18        -7.9960    2.2080   -0.7830 h1        1 MOL      0.105108
     47 H19        -7.5140    1.7510    0.7570 h1        1 MOL      0.105108
     48 N5         -6.3500   -0.5200   -1.2830 n         1 MOL      0.048219
     49 C16        -6.4510   -1.8680   -1.9510 c3        1 MOL     -0.233175
     50 C17        -6.5100   -3.0240   -0.9570 c         1 MOL      0.536453
     51 O10        -6.4910   -4.1780   -1.3380 o         1 MOL     -0.517964
     52 C18        -5.3360   -1.9380   -3.0240 c3        1 MOL     -0.043031
     53 C19        -3.8870   -2.1310   -2.5640 c         1 MOL      0.549624
     54 N6         -2.9290   -2.2150   -3.5050 n         1 MOL     -0.663236
     55 O11        -3.5850   -1.9320   -1.3870 o         1 MOL     -0.549984
     56 H20        -5.4540   -0.0550   -1.2960 hn        1 MOL      0.083785
     57 H21        -7.3420   -1.8450   -2.5740 h1        1 MOL      0.153355
     58 H22        -5.3610   -0.9750   -3.5420 hc        1 MOL      0.041481
     59 H23        -5.5440   -2.7330   -3.7370 hc        1 MOL      0.041481
     60 H24        -3.1730   -2.2210   -4.4860 hn        1 MOL      0.351928
     61 H25        -1.9860   -2.0370   -3.1900 hn        1 MOL      0.351928
     62 N7         -6.4130   -2.8090    0.3630 n         1 MOL     -0.308419
     63 C20        -6.4300   -3.8330    1.3750 c3        1 MOL     -0.275535
     64 C21        -5.1310   -4.5370    1.6890 c         1 MOL      0.546466
     65 O12        -5.0910   -5.5970    2.3420 o         1 MOL     -0.560992
     66 H26        -6.0620   -1.9190    0.6870 hn        1 MOL      0.231506
     67 H27        -7.2240   -4.5680    1.2450 h1        1 MOL      0.135457
     68 H28        -6.6440   -3.2880    2.2910 h1        1 MOL      0.135457
     69 N8         -4.0140   -4.0540    1.1170 n         1 MOL     -0.357316
     70 C22        -2.6700   -4.5910    1.2620 c3        1 MOL     -0.187467
     71 C23        -1.5760   -3.5740    1.2880 c         1 MOL      0.678419
     72 O13        -1.6790   -2.5250    0.6290 o         1 MOL     -0.595401
     73 C24        -2.4140   -5.6830    0.1510 c3        1 MOL      0.610424
     74 C25        -3.3300   -6.8980    0.2490 c3        1 MOL     -0.436678
     75 O14        -2.5570   -5.2450   -1.1400 oh        1 MOL     -0.615576
     76 H29        -4.1700   -3.5190    0.2720 hn        1 MOL      0.321053
     77 H30        -2.5600   -5.1010    2.2160 h1        1 MOL      0.094605
     78 H31        -1.4300   -6.1110    0.3140 h1        1 MOL     -0.064891
     79 H32        -2.8450   -4.3220   -1.1160 ho        1 MOL      0.336263
     80 H33        -4.3230   -6.5620   -0.0080 hc        1 MOL      0.099436
     81 H34        -3.0460   -7.7190   -0.4010 hc        1 MOL      0.099436
     82 H35        -3.2920   -7.2070    1.3000 hc        1 MOL      0.099436
     83 N9         -0.4980   -3.8680    2.0380 n         1 MOL     -0.698718
     84 C26         0.6420   -2.9040    2.0230 c3        1 MOL      0.002121
     85 C27         1.3090   -3.0450    0.6240 c         1 MOL      0.471737
     86 O15         1.5630   -4.1520    0.1660 o         1 MOL     -0.591619
     87 C28         1.7080   -3.1650    3.1360 c3        1 MOL      0.296332
     88 C29         0.8970   -3.1910    4.4630 c3        1 MOL      0.160622
     89 C30         2.6700   -1.9620    3.0190 c3        1 MOL     -0.399812
     90 C31         1.8960   -2.9630    5.6900 c3        1 MOL     -0.377070
     91 H36        -0.3370   -4.8190    2.3440 hn        1 MOL      0.338724
     92 H37         0.2440   -1.8890    2.1010 h1        1 MOL      0.119474
     93 H38         2.2050   -4.1240    3.0000 hc        1 MOL     -0.026461
     94 H39         0.4990   -4.2040    4.5070 hc        1 MOL     -0.042645
     95 H40         0.0430   -2.5070    4.4670 hc        1 MOL     -0.042645
     96 H41         2.1070   -1.0650    3.2440 hc        1 MOL      0.064877
     97 H42         3.5460   -2.0340    3.6600 hc        1 MOL      0.064877
     98 H43         3.1520   -1.9310    2.0430 hc        1 MOL      0.064877
     99 H44         1.3370   -3.2280    6.5930 hc        1 MOL      0.086683
    100 H45         2.8540   -3.4760    5.5350 hc        1 MOL      0.086683
    101 H46         2.0780   -1.8940    5.7830 hc        1 MOL      0.086683
    102 N10         1.6920   -1.9830   -0.0350 n         1 MOL     -0.025528
    103 C32         2.4670   -2.0110   -1.2940 c3        1 MOL      0.045073
    104 C33         3.9250   -1.6640   -0.9520 c         1 MOL      0.354814
    105 O16         4.1270   -0.9980    0.0700 o         1 MOL     -0.294194
    106 C34         1.8760   -1.0470   -2.3570 c3        1 MOL     -0.349930
    107 C35         0.4210   -1.3720   -2.6450 c         1 MOL      0.757302
    108 O17        -0.5290   -0.8860   -1.9800 o         1 MOL     -0.680117
    109 O18         0.1730   -2.0930   -3.6270 o         1 MOL     -0.680117
    110 H47         1.2970   -1.0910    0.2250 hn        1 MOL      0.032800
    111 H48         2.5820   -3.0340   -1.6530 h1        1 MOL      0.062457
    112 H49         2.4730   -1.0900   -3.2590 hc        1 MOL      0.095067
    113 H50         1.9940   -0.0190   -2.0150 hc        1 MOL      0.095067
    114 N11         4.9260   -1.9540   -1.7690 n         1 MOL     -0.442005
    115 C36         6.3370   -1.7610   -1.4170 c3        1 MOL     -0.004276
    116 C37         6.7400   -0.2930   -1.1290 c         1 MOL      0.408223
    117 O19         7.3860   -0.0800   -0.1480 o         1 MOL     -0.476557
    118 C38         7.3250   -2.2530   -2.4720 c3        1 MOL     -0.025640
    119 C39         8.7560   -2.0240   -2.0610 ca        1 MOL      0.089601
    120 C40         9.2430   -2.5610   -0.8110 ca        1 MOL     -0.253804
    121 C41         9.6600   -1.1460   -2.7920 ca        1 MOL     -0.253804
    122 C42        10.5470   -2.1640   -0.2850 ca        1 MOL     -0.030784
    123 C43        10.9190   -0.7860   -2.2910 ca        1 MOL     -0.030784
    124 C44        11.3490   -1.2700   -1.0770 ca        1 MOL     -0.155451
    125 H51         4.7170   -2.3590   -2.6770 hn        1 MOL      0.301103
    126 H52         6.4910   -2.3390   -0.5130 h1        1 MOL      0.135113
    127 H53         7.2170   -1.7600   -3.4430 hc        1 MOL      0.035264
    128 H54         7.2020   -3.2960   -2.7410 hc        1 MOL      0.035264
    129 H55         8.5830   -3.1080   -0.1470 ha        1 MOL      0.136097
    130 H56         9.2560   -0.7190   -3.6900 ha        1 MOL      0.136097
    131 H57        10.9270   -2.6000    0.6260 ha        1 MOL      0.098716
    132 H58        11.6020   -0.1410   -2.8200 ha        1 MOL      0.098716
    133 H59        12.3380   -0.9960   -0.7550 ha        1 MOL      0.101246
    134 N12         6.3630    0.7780   -1.8270 n         1 MOL     -0.039324
    135 C45         6.6010    2.1620   -1.3900 c3        1 MOL     -0.036772
    136 C46         5.9730    2.5310   -0.0870 c         1 MOL      0.366971
    137 O20         6.5130    3.3430    0.6350 o         1 MOL     -0.505220
    138 C47         6.0760    3.0450   -2.5450 c3        1 MOL     -0.004846
    139 C48         5.2010    2.1570   -3.5090 c3        1 MOL     -0.079110
    140 C49         5.7500    0.7790   -3.2120 c3        1 MOL      0.066345
    141 H60         7.6810    2.3120   -1.4160 h1        1 MOL      0.063567
    142 H61         5.4490    3.8720   -2.2020 hc        1 MOL      0.028255
    143 H62         6.9520    3.4520   -3.0590 hc        1 MOL      0.028255
    144 H63         4.2140    2.1880   -3.0520 hc        1 MOL      0.041841
    145 H64         5.3180    2.4610   -4.5460 hc        1 MOL      0.041841
    146 H65         4.9660    0.0200   -3.2690 h1        1 MOL     -0.003802
    147 H66         6.5250    0.5880   -3.9470 h1        1 MOL     -0.003802
    148 N13         4.7000    2.2120    0.1590 n         1 MOL     -0.232288
    149 C50         3.9980    2.2920    1.5240 c3        1 MOL     -0.044736
    150 C51         4.8060    1.5090    2.6130 c         1 MOL      0.443574
    151 O21         4.8920    2.0100    3.7540 o         1 MOL     -0.576126
    152 C52         2.6200    1.7330    1.3290 c3        1 MOL      0.096478
    153 C53         1.7740    2.2260    0.1220 c3        1 MOL     -0.203496
    154 C54         0.3990    1.5250    0.1740 c         1 MOL      0.653312
    155 O22        -0.5710    2.0870   -0.3430 o         1 MOL     -0.708465
    156 O23         0.2470    0.4050    0.7400 o         1 MOL     -0.708465
    157 H67         4.2250    1.6420   -0.5220 hn        1 MOL      0.195912
    158 H68         3.9230    3.2970    1.9340 h1        1 MOL      0.084907
    159 H69         2.1430    1.9410    2.2800 hc        1 MOL      0.002609
    160 H70         2.8030    0.6700    1.2320 hc        1 MOL      0.002609
    161 H71         2.2090    1.8600   -0.8020 hc        1 MOL      0.070885
    162 H72         1.6870    3.3060    0.1470 hc        1 MOL      0.070885
    163 N14         5.3420    0.3800    2.3040 n         1 MOL      0.039953
    164 C55         6.3450   -0.2870    3.1790 c3        1 MOL     -0.230939
    165 H73         6.4140   -1.3420    2.9120 h1        1 MOL      0.086969
    166 H74         7.3170    0.1870    3.0430 h1        1 MOL      0.086969
    167 H75         6.0370   -0.1960    4.2210 h1        1 MOL      0.086969
    168 H76         5.2790    0.0250    1.3660 hn        1 MOL      0.010599
    169 Ca1        -2.1970    0.0590   -0.3040 Ca        1 MOL      1.687770
    170 O24        -4.1850   -0.8150    1.3480 oh        1 MOL     -0.747456
    171 H77        -5.0590   -0.5760    1.6590 ho        1 MOL      0.375718
    172 H78        -3.6350   -0.7790    2.1320 ho        1 MOL      0.375718
    173 O25        -1.5740   -0.1150    2.7130 oh        1 MOL     -0.747456
    174 H79        -1.5910    0.2240    3.6130 ho        1 MOL      0.375718
    175 H80        -0.6410   -0.1260    2.4920 ho        1 MOL      0.375718
@<TRIPOS>BOND
     1    1    2 1   
     2    1    4 1   
     3    1    5 1   
     4    1    6 1   
     5    2    3 2   
     6    2    7 1   
     7    7    8 1   
     8    7   15 1   
     9    8    9 1   
    10    8   11 1   
    11    8   16 1   
    12    9   10 2   
    13    9   19 1   
    14   11   12 1   
    15   11   17 1   
    16   11   18 1   
    17   12   13 1   
    18   12   14 1   
    19   19   20 1   
    20   19   24 1   
    21   20   21 1   
    22   20   23 1   
    23   20   25 1   
    24   21   22 2   
    25   21   29 1   
    26   23   26 1   
    27   23   27 1   
    28   23   28 1   
    29   29   30 1   
    30   29   37 1   
    31   30   31 1   
    32   30   33 1   
    33   30   38 1   
    34   31   32 2   
    35   31   41 1   
    36   33   34 1   
    37   33   39 1   
    38   33   40 1   
    39   34   35 1   
    40   34   36 1   
    41   41   42 1   
    42   41   45 1   
    43   42   43 1   
    44   42   46 1   
    45   42   47 1   
    46   43   44 2   
    47   43   48 1   
    48   48   49 1   
    49   48   56 1   
    50   49   50 1   
    51   49   52 1   
    52   49   57 1   
    53   50   51 2   
    54   50   62 1   
    55   52   53 1   
    56   52   58 1   
    57   52   59 1   
    58   53   54 1   
    59   53   55 2   
    60   54   60 1   
    61   54   61 1   
    62   62   63 1   
    63   62   66 1   
    64   63   64 1   
    65   63   67 1   
    66   63   68 1   
    67   64   65 2   
    68   64   69 1   
    69   69   70 1   
    70   69   76 1   
    71   70   71 1   
    72   70   73 1   
    73   70   77 1   
    74   71   72 2   
    75   71   83 1   
    76   73   74 1   
    77   73   75 1   
    78   73   78 1   
    79   74   80 1   
    80   74   81 1   
    81   74   82 1   
    82   75   79 1   
    83   83   84 1   
    84   83   91 1   
    85   84   85 1   
    86   84   87 1   
    87   84   92 1   
    88   85   86 2   
    89   85  102 1   
    90   87   88 1   
    91   87   89 1   
    92   87   93 1   
    93   88   90 1   
    94   88   94 1   
    95   88   95 1   
    96   89   96 1   
    97   89   97 1   
    98   89   98 1   
    99   90   99 1   
   100   90  100 1   
   101   90  101 1   
   102  102  103 1   
   103  102  110 1   
   104  103  104 1   
   105  103  106 1   
   106  103  111 1   
   107  104  105 2   
   108  104  114 1   
   109  106  107 1   
   110  106  112 1   
   111  106  113 1   
   112  107  108 1   
   113  107  109 1   
   114  114  115 1   
   115  114  125 1   
   116  115  116 1   
   117  115  118 1   
   118  115  126 1   
   119  116  117 2   
   120  116  134 1   
   121  118  119 1   
   122  118  127 1   
   123  118  128 1   
   124  119  120 ar  
   125  119  121 ar  
   126  120  122 ar  
   127  120  129 1   
   128  121  123 ar  
   129  121  130 1   
   130  122  124 ar  
   131  122  131 1   
   132  123  124 ar  
   133  123  132 1   
   134  124  133 1   
   135  134  135 1   
   136  134  140 1   
   137  135  136 1   
   138  135  138 1   
   139  135  141 1   
   140  136  137 2   
   141  136  148 1   
   142  138  139 1   
   143  138  142 1   
   144  138  143 1   
   145  139  140 1   
   146  139  144 1   
   147  139  145 1   
   148  140  146 1   
   149  140  147 1   
   150  148  149 1   
   151  148  157 1   
   152  149  150 1   
   153  149  152 1   
   154  149  158 1   
   155  150  151 2   
   156  150  163 1   
   157  152  153 1   
   158  152  159 1   
   159  152  160 1   
   160  153  154 1   
   161  153  161 1   
   162  153  162 1   
   163  154  155 1   
   164  154  156 1   
   165  163  164 1   
   166  163  168 1   
   167  164  165 1   
   168  164  166 1   
   169  164  167 1   
   170  170  171 1   
   171  170  172 1   
   172  173  174 1   
   173  173  175 1   
@<TRIPOS>SUBSTRUCTURE
     1 MOL         1 TEMP              0 ****  ****    0 ROOT
