@<TRIPOS>MOLECULE
MOL
  182   178     1     0     0
SMALL
resp


@<TRIPOS>ATOM
      1 C1         -0.1290    4.6190    5.6900 c3        1 MOL     -0.284613
      2 C2         -0.2200    3.9830    4.2910 c         1 MOL      0.613580
      3 O1          0.7080    3.9670    3.5090 o         1 MOL     -0.575687
      4 H1         -0.5480    3.9350    6.4270 hc        1 MOL      0.077797
      5 H2          0.9140    4.8190    5.9320 hc        1 MOL      0.077797
      6 H3         -0.6910    5.5540    5.7020 hc        1 MOL      0.077797
      7 N1         -1.4160    3.4820    3.9180 n         1 MOL     -0.441646
      8 C3         -1.6700    2.9950    2.5480 c3        1 MOL     -0.099734
      9 C4         -2.1170    4.2600    1.6480 c         1 MOL      0.561703
     10 O2         -3.2380    4.7560    1.8240 o         1 MOL     -0.487992
     11 C5         -2.6610    1.8870    2.6240 c3        1 MOL     -0.291876
     12 C6         -2.8180    1.3540    1.2530 c         1 MOL      0.889656
     13 O3         -2.0310    1.5750    0.3030 o         1 MOL     -0.808580
     14 O4         -3.8240    0.6300    0.9980 o         1 MOL     -0.808580
     15 H4         -2.2510    3.4510    4.4800 hn        1 MOL      0.304302
     16 H5         -0.7160    2.5920    2.1990 h1        1 MOL      0.088720
     17 H6         -3.6100    2.3050    2.9540 hc        1 MOL      0.107003
     18 H7         -2.3310    1.0110    3.1960 hc        1 MOL      0.107003
     19 N2         -1.2660    4.7980    0.7640 n         1 MOL     -0.376055
     20 C7         -1.4930    6.0210   -0.0380 c3        1 MOL     -0.075067
     21 C8         -2.7090    5.9230   -0.9560 c         1 MOL      0.406745
     22 O5         -3.5920    6.8100   -1.1260 o         1 MOL     -0.526441
     23 C9         -0.2530    6.3160   -0.8960 c3        1 MOL     -0.256401
     24 C10         0.8770    6.8340    0.0090 c3        1 MOL      0.292941
     25 C11         2.0600    7.5480   -0.6700 c3        1 MOL     -0.164034
     26 C12         3.1050    7.7350    0.3590 c3        1 MOL      0.192016
     27 N3          4.3710    8.2740   -0.3040 n4        1 MOL     -0.378673
     28 H8         -0.4150    4.2740    0.6010 hn        1 MOL      0.325603
     29 H9         -1.6660    6.7970    0.6970 h1        1 MOL      0.133445
     30 H10        -0.4470    7.1340   -1.5840 hc        1 MOL      0.086461
     31 H11         0.1240    5.4730   -1.4720 hc        1 MOL      0.086461
     32 H12         1.1820    5.9340    0.5490 hc        1 MOL     -0.035905
     33 H13         0.3990    7.4430    0.7770 hc        1 MOL     -0.035905
     34 H14         1.6570    8.5100   -1.0070 hc        1 MOL      0.049805
     35 H15         2.4090    6.9110   -1.4780 hc        1 MOL      0.049805
     36 H16         3.3290    6.8560    0.9640 hx        1 MOL      0.045445
     37 H17         2.7620    8.5190    1.0190 hx        1 MOL      0.045445
     38 H18         4.8420    7.5340   -0.8160 hn        1 MOL      0.324783
     39 H19         4.2650    9.1150   -0.8500 hn        1 MOL      0.324783
     40 H20         5.0050    8.5610    0.4220 hn        1 MOL      0.324783
     41 N4         -2.8450    4.7360   -1.5010 n         1 MOL     -0.204265
     42 C13        -3.9330    4.3800   -2.4740 c3        1 MOL     -0.059138
     43 C14        -5.2290    3.8360   -1.7100 c         1 MOL      0.421046
     44 O6         -6.3350    3.8860   -2.2230 o         1 MOL     -0.521515
     45 C15        -3.4180    3.2760   -3.4010 c3        1 MOL     -0.180525
     46 C16        -2.7060    2.1880   -2.6700 c         1 MOL      0.601458
     47 O7         -1.4650    2.1640   -2.6340 o         1 MOL     -0.706166
     48 O8         -3.3540    1.1950   -2.2160 o         1 MOL     -0.706166
     49 H21        -2.1560    4.0430   -1.2340 hn        1 MOL      0.229986
     50 H22        -4.1500    5.2900   -3.0320 h1        1 MOL      0.127488
     51 H23        -2.7890    3.7690   -4.1400 hc        1 MOL      0.072770
     52 H24        -4.2310    2.8800   -4.0060 hc        1 MOL      0.072770
     53 N5         -4.9750    3.3090   -0.4890 n         1 MOL      0.088973
     54 C17        -5.9880    2.7810    0.3610 c3        1 MOL     -0.195187
     55 C18        -6.6010    1.4820   -0.1630 c         1 MOL      0.531021
     56 O9         -7.7650    1.2620    0.2540 o         1 MOL     -0.577678
     57 H25        -4.0440    3.2440   -0.0860 hn        1 MOL     -0.049838
     58 H26        -6.7770    3.5030    0.5210 h1        1 MOL      0.104605
     59 H27        -5.6040    2.5110    1.3460 h1        1 MOL      0.104605
     60 N6         -5.9520    0.6320   -0.9600 n         1 MOL     -0.324759
     61 C19        -6.4530   -0.6810   -1.3970 c3        1 MOL      0.032198
     62 C20        -6.5420   -1.7130   -0.2920 c         1 MOL      0.234960
     63 O10        -7.1250   -2.8230   -0.3820 o         1 MOL     -0.480043
     64 C21        -5.6620   -1.2870   -2.6340 c3        1 MOL     -0.284694
     65 C22        -4.3560   -2.0650   -2.3060 c         1 MOL      0.563155
     66 N7         -4.0480   -3.1840   -2.9480 n         1 MOL     -0.551714
     67 O11        -3.6450   -1.7480   -1.3390 o         1 MOL     -0.590784
     68 H28        -5.0190    0.8810   -1.2440 hn        1 MOL      0.269740
     69 H29        -7.4730   -0.5220   -1.7370 h1        1 MOL      0.127065
     70 H30        -5.5570   -0.4380   -3.3000 hc        1 MOL      0.111524
     71 H31        -6.3490   -1.9520   -3.1580 hc        1 MOL      0.111524
     72 H32        -4.6080   -3.4950   -3.7280 hn        1 MOL      0.296668
     73 H33        -3.2550   -3.7520   -2.6670 hn        1 MOL      0.296668
     74 N8         -5.9740   -1.3980    0.8750 n         1 MOL      0.002788
     75 C23        -5.8280   -2.2050    2.0800 c3        1 MOL     -0.364799
     76 C24        -4.5430   -3.0070    2.1980 c         1 MOL      0.746468
     77 O12        -4.6200   -3.8130    3.1710 o         1 MOL     -0.596597
     78 H34        -5.4420   -0.5490    0.8350 hn        1 MOL      0.193930
     79 H35        -6.6310   -2.9450    2.2060 h1        1 MOL      0.146341
     80 H36        -5.9370   -1.5720    2.9580 h1        1 MOL      0.146341
     81 N9         -3.4710   -2.8300    1.4150 n         1 MOL     -0.737027
     82 C25        -2.2010   -3.5790    1.4320 c3        1 MOL      0.557105
     83 C26        -0.9820   -2.6170    1.1970 c         1 MOL      0.125418
     84 O13        -1.0660   -1.6320    0.4780 o         1 MOL     -0.616976
     85 C27        -2.0850   -4.5570    0.2250 c3        1 MOL      0.181183
     86 C28        -3.1030   -5.6790    0.2630 ca        1 MOL     -0.175690
     87 C29        -4.4280   -5.4580   -0.2350 ca        1 MOL     -0.052913
     88 C30        -2.8310   -6.9260    0.8710 ca        1 MOL     -0.052913
     89 C31        -5.4750   -6.3540   -0.0260 ca        1 MOL     -0.325977
     90 C32        -3.8560   -7.9290    0.8840 ca        1 MOL     -0.325977
     91 C33        -5.2380   -7.6540    0.5360 ca        1 MOL      0.366669
     92 O14        -6.3220   -8.4050    0.7340 oh        1 MOL     -0.391238
     93 H37        -3.5150   -2.0950    0.7160 hn        1 MOL      0.516703
     94 H38        -2.1480   -4.1970    2.3330 h1        1 MOL     -0.055441
     95 H39        -1.1160   -5.0640    0.1960 hc        1 MOL     -0.054539
     96 H40        -2.2330   -3.8510   -0.5930 hc        1 MOL     -0.054539
     97 H41        -4.7090   -4.5600   -0.7600 ha        1 MOL      0.100836
     98 H42        -1.8480   -7.1930    1.2270 ha        1 MOL      0.100836
     99 H43        -6.4890   -6.0720   -0.2770 ha        1 MOL      0.146698
    100 H44        -3.6240   -8.9120    1.2760 ha        1 MOL      0.146698
    101 H45        -5.9470   -9.2210    1.0570 ho        1 MOL      0.313147
    102 N10         0.1500   -2.9610    1.7440 n         1 MOL     -0.405264
    103 C34         1.4160   -2.1830    1.6470 c3        1 MOL      0.010757
    104 C35         2.5880   -3.2510    1.3330 c         1 MOL      0.462523
    105 O15         2.7290   -4.2020    2.0990 o         1 MOL     -0.536660
    106 C36         1.6980   -1.4480    2.9720 c3        1 MOL      0.067016
    107 C37         0.7350   -0.2640    3.0120 c3        1 MOL      0.132384
    108 C38         3.1820   -1.0480    3.0040 c3        1 MOL     -0.120308
    109 C39         0.8150    0.6470    4.2430 c3        1 MOL     -0.124229
    110 H46         0.0920   -3.6660    2.4620 hn        1 MOL      0.296289
    111 H47         1.4050   -1.5370    0.7640 h1        1 MOL      0.119088
    112 H48         1.4740   -2.1240    3.7970 hc        1 MOL      0.005688
    113 H49        -0.2650   -0.7000    2.9770 hc        1 MOL      0.027897
    114 H50         0.9420    0.3240    2.1180 hc        1 MOL      0.027897
    115 H51         3.7750   -1.9200    3.2640 hc        1 MOL      0.030383
    116 H52         3.3890   -0.6700    2.0010 hc        1 MOL      0.030383
    117 H53         3.3110   -0.3850    3.8550 hc        1 MOL      0.030383
    118 H54         0.9350   -0.0180    5.0970 hc        1 MOL      0.014261
    119 H55         1.7280    1.2170    4.0760 hc        1 MOL      0.014261
    120 H56        -0.0720    1.2590    4.3710 hc        1 MOL      0.014261
    121 N11         3.3320   -2.9900    0.2450 n         1 MOL     -0.184123
    122 C40         4.4640   -3.7580   -0.2140 c3        1 MOL     -0.006586
    123 C41         5.8340   -3.2970    0.2350 c         1 MOL      0.426468
    124 O16         6.0040   -2.1950    0.7530 o         1 MOL     -0.376483
    125 C42         4.4050   -3.7460   -1.7400 c3        1 MOL      0.102889
    126 O17         4.6750   -2.4910   -2.3020 oh        1 MOL     -0.596429
    127 H57         3.0140   -2.2890   -0.4090 hn        1 MOL      0.141621
    128 H58         4.2890   -4.8000    0.0690 h1        1 MOL      0.045510
    129 H59         3.4560   -4.2110   -1.9930 h1        1 MOL      0.036472
    130 H60         5.0890   -4.5050   -2.1260 h1        1 MOL      0.036472
    131 H61         3.8500   -2.0150   -2.2400 ho        1 MOL      0.427136
    132 N12         6.9490   -4.0820   -0.0670 n         1 MOL     -0.515893
    133 C43         8.2450   -3.5080    0.2780 c3        1 MOL      0.243293
    134 C44         8.5370   -2.1760   -0.3880 c         1 MOL      0.375249
    135 O18         9.0780   -1.2930    0.2290 o         1 MOL     -0.516075
    136 C45         9.3860   -4.4260   -0.1110 c3        1 MOL     -0.379326
    137 H62         6.8410   -5.0080   -0.4450 hn        1 MOL      0.311992
    138 H63         8.3060   -3.4270    1.3620 h1        1 MOL      0.070566
    139 H64        10.3210   -4.0080    0.2500 hc        1 MOL      0.108855
    140 H65         9.3680   -5.2580    0.5910 hc        1 MOL      0.108855
    141 H66         9.2400   -4.7150   -1.1590 hc        1 MOL      0.108855
    142 N13         8.0390   -1.9520   -1.5990 n         1 MOL     -0.299512
    143 C46         8.2610   -0.6600   -2.3300 c3        1 MOL     -0.005299
    144 C47         7.5960    0.6440   -1.6820 c         1 MOL      0.337390
    145 O19         8.0250    1.8260   -1.7610 o         1 MOL     -0.517490
    146 C48         7.8840   -0.8520   -3.8500 c3        1 MOL     -0.274527
    147 H67         7.6380   -2.6860   -2.1620 hn        1 MOL      0.279639
    148 H68         9.3250   -0.4590   -2.2460 h1        1 MOL      0.116454
    149 H69         8.5970   -1.5110   -4.3460 hc        1 MOL      0.084187
    150 H70         6.8670   -1.2240   -3.9400 hc        1 MOL      0.084187
    151 H71         8.0210    0.1070   -4.3620 hc        1 MOL      0.084187
    152 N14         6.4970    0.3610   -0.9790 n         1 MOL      0.073495
    153 C49         5.6380    1.3770   -0.3700 c3        1 MOL     -0.160260
    154 C50         6.1420    1.7220    1.0490 c         1 MOL      0.420321
    155 O20         6.2480    2.9660    1.4250 o         1 MOL     -0.543813
    156 C51         4.2310    0.7670   -0.2770 c3        1 MOL      0.245124
    157 C52         3.4670    0.8300   -1.6100 c3        1 MOL     -0.394343
    158 C53         2.2970   -0.0320   -1.4380 c         1 MOL      0.907950
    159 O21         1.2110    0.4260   -1.0050 o         1 MOL     -0.752548
    160 O22         2.4760   -1.2270   -1.7000 o         1 MOL     -0.752548
    161 H72         6.1830   -0.5920   -0.9280 hn        1 MOL      0.073711
    162 H73         5.5450    2.2650   -0.9820 h1        1 MOL      0.090151
    163 H74         3.6990    1.3190    0.5010 hc        1 MOL     -0.023942
    164 H75         4.3600   -0.2750   -0.0110 hc        1 MOL     -0.023942
    165 H76         4.2220    0.4100   -2.2840 hc        1 MOL      0.076892
    166 H77         3.1780    1.8510   -1.8650 hc        1 MOL      0.076892
    167 N15         6.4460    0.6210    1.7860 n         1 MOL     -0.115156
    168 C54         6.9160    0.7350    3.1730 c3        1 MOL     -0.291224
    169 H78         7.9670    1.0250    3.1770 h1        1 MOL      0.115433
    170 H79         6.3280    1.4910    3.6950 h1        1 MOL      0.115433
    171 H80         6.8020   -0.2250    3.6760 h1        1 MOL      0.115433
    172 H81         6.2050   -0.3030    1.4600 hn        1 MOL      0.133896
    173 Ca1        -1.3270   -0.2320   -1.5460 Ca        1 MOL      1.781733
    174 O23         0.2180   -2.4890   -1.9230 oh        1 MOL     -0.748133
    175 H82         0.2440   -3.4380   -1.8130 ho        1 MOL      0.370199
    176 H83         1.1290   -2.2110   -1.8500 ho        1 MOL      0.370199
    177 O24        -1.9420   -1.4390   -3.9260 oh        1 MOL     -0.748133
    178 H84        -2.7180   -1.2260   -4.4470 ho        1 MOL      0.370199
    179 H85        -1.4950   -2.1210   -4.4300 ho        1 MOL      0.370199
    180 O25         0.5030    0.3570   -3.9750 oh        1 MOL     -0.748133
    181 H86         0.4080    1.2930   -3.7780 ho        1 MOL      0.370199
    182 H87         0.2030    0.2630   -4.8810 ho        1 MOL      0.370199
@<TRIPOS>BOND
     1    1    2 1   
     2    1    4 1   
     3    1    5 1   
     4    1    6 1   
     5    2    3 2   
     6    2    7 1   
     7    7    8 1   
     8    7   15 1   
     9    8    9 1   
    10    8   11 1   
    11    8   16 1   
    12    9   10 2   
    13    9   19 1   
    14   11   12 1   
    15   11   17 1   
    16   11   18 1   
    17   12   13 1   
    18   12   14 1   
    19   19   20 1   
    20   19   28 1   
    21   20   21 1   
    22   20   23 1   
    23   20   29 1   
    24   21   22 2   
    25   21   41 1   
    26   23   24 1   
    27   23   30 1   
    28   23   31 1   
    29   24   25 1   
    30   24   32 1   
    31   24   33 1   
    32   25   26 1   
    33   25   34 1   
    34   25   35 1   
    35   26   27 1   
    36   26   36 1   
    37   26   37 1   
    38   27   38 1   
    39   27   39 1   
    40   27   40 1   
    41   41   42 1   
    42   41   49 1   
    43   42   43 1   
    44   42   45 1   
    45   42   50 1   
    46   43   44 2   
    47   43   53 1   
    48   45   46 1   
    49   45   51 1   
    50   45   52 1   
    51   46   47 1   
    52   46   48 1   
    53   53   54 1   
    54   53   57 1   
    55   54   55 1   
    56   54   58 1   
    57   54   59 1   
    58   55   56 2   
    59   55   60 1   
    60   60   61 1   
    61   60   68 1   
    62   61   62 1   
    63   61   64 1   
    64   61   69 1   
    65   62   63 2   
    66   62   74 1   
    67   64   65 1   
    68   64   70 1   
    69   64   71 1   
    70   65   66 1   
    71   65   67 2   
    72   66   72 1   
    73   66   73 1   
    74   74   75 1   
    75   74   78 1   
    76   75   76 1   
    77   75   79 1   
    78   75   80 1   
    79   76   77 2   
    80   76   81 1   
    81   81   82 1   
    82   81   93 1   
    83   82   83 1   
    84   82   85 1   
    85   82   94 1   
    86   83   84 2   
    87   83  102 1   
    88   85   86 1   
    89   85   95 1   
    90   85   96 1   
    91   86   87 ar  
    92   86   88 ar  
    93   87   89 ar  
    94   87   97 1   
    95   88   90 ar  
    96   88   98 1   
    97   89   91 ar  
    98   89   99 1   
    99   90   91 ar  
   100   90  100 1   
   101   91   92 1   
   102   92  101 1   
   103  102  103 1   
   104  102  110 1   
   105  103  104 1   
   106  103  106 1   
   107  103  111 1   
   108  104  105 2   
   109  104  121 1   
   110  106  107 1   
   111  106  108 1   
   112  106  112 1   
   113  107  109 1   
   114  107  113 1   
   115  107  114 1   
   116  108  115 1   
   117  108  116 1   
   118  108  117 1   
   119  109  118 1   
   120  109  119 1   
   121  109  120 1   
   122  121  122 1   
   123  121  127 1   
   124  122  123 1   
   125  122  125 1   
   126  122  128 1   
   127  123  124 2   
   128  123  132 1   
   129  125  126 1   
   130  125  129 1   
   131  125  130 1   
   132  126  131 1   
   133  132  133 1   
   134  132  137 1   
   135  133  134 1   
   136  133  136 1   
   137  133  138 1   
   138  134  135 2   
   139  134  142 1   
   140  136  139 1   
   141  136  140 1   
   142  136  141 1   
   143  142  143 1   
   144  142  147 1   
   145  143  144 1   
   146  143  146 1   
   147  143  148 1   
   148  144  145 2   
   149  144  152 1   
   150  146  149 1   
   151  146  150 1   
   152  146  151 1   
   153  152  153 1   
   154  152  161 1   
   155  153  154 1   
   156  153  156 1   
   157  153  162 1   
   158  154  155 2   
   159  154  167 1   
   160  156  157 1   
   161  156  163 1   
   162  156  164 1   
   163  157  158 1   
   164  157  165 1   
   165  157  166 1   
   166  158  159 1   
   167  158  160 1   
   168  167  168 1   
   169  167  172 1   
   170  168  169 1   
   171  168  170 1   
   172  168  171 1   
   173  174  175 1   
   174  174  176 1   
   175  177  178 1   
   176  177  179 1   
   177  180  181 1   
   178  180  182 1   
@<TRIPOS>SUBSTRUCTURE
     1 MOL         1 TEMP              0 ****  ****    0 ROOT
