@<TRIPOS>MOLECULE
MOL
  189   185     1     0     0
SMALL
resp


@<TRIPOS>ATOM
      1 C1          0.9500    2.5120    4.9900 c3        1 MOL     -0.403908
      2 C2          0.2020    2.3850    3.6320 c         1 MOL      0.703659
      3 O1          0.7780    2.6510    2.5950 o         1 MOL     -0.572605
      4 H1          1.1650    1.5170    5.3800 hc        1 MOL      0.104825
      5 H2          1.8850    3.0530    4.8410 hc        1 MOL      0.104825
      6 H3          0.3250    3.0540    5.7000 hc        1 MOL      0.104825
      7 N1         -1.1560    2.0190    3.6250 n         1 MOL     -0.719330
      8 C3         -1.9570    1.8780    2.4370 c3        1 MOL      0.146691
      9 C4         -2.5070    3.2420    1.8090 c         1 MOL      0.496475
     10 O2         -3.7250    3.5130    1.6290 o         1 MOL     -0.479547
     11 C5         -3.0160    0.8150    2.8020 c3        1 MOL     -0.074060
     12 C6         -3.7720    0.2870    1.5690 c         1 MOL      0.627622
     13 O3         -3.2420    0.4100    0.4690 o         1 MOL     -0.682947
     14 O4         -4.9760   -0.1000    1.7760 o         1 MOL     -0.682947
     15 H4         -1.5610    1.7970    4.5170 hn        1 MOL      0.352693
     16 H5         -1.3090    1.4790    1.6500 h1        1 MOL      0.080543
     17 H6         -3.7260    1.2260    3.5100 hc        1 MOL      0.028542
     18 H7         -2.5110    0.0120    3.3360 hc        1 MOL      0.028542
     19 N2         -1.5440    4.0920    1.4530 n         1 MOL     -0.400879
     20 C7         -1.7120    5.4320    0.7430 c3        1 MOL     -0.041068
     21 C8         -2.5230    5.5110   -0.5890 c         1 MOL      0.576935
     22 O5         -2.8030    6.6080   -1.1130 o         1 MOL     -0.582736
     23 C9         -0.2720    5.9700    0.5830 c3        1 MOL     -0.232243
     24 C10         0.2760    6.5360    1.8770 c3        1 MOL      0.195643
     25 C11         1.5230    7.3340    1.7880 c3        1 MOL      0.015167
     26 C12         1.9280    8.0450    3.1300 c3        1 MOL     -0.092061
     27 N3          2.4010    7.0530    4.1260 n4        1 MOL     -0.289002
     28 H8         -0.6290    3.6730    1.4300 hn        1 MOL      0.324107
     29 H9         -2.2130    6.1340    1.4010 h1        1 MOL      0.095645
     30 H10        -0.2530    6.8040   -0.1300 hc        1 MOL      0.083450
     31 H11         0.3340    5.2140    0.0890 hc        1 MOL      0.083450
     32 H12         0.2920    5.7520    2.6410 hc        1 MOL     -0.040200
     33 H13        -0.4310    7.2340    2.3380 hc        1 MOL     -0.040200
     34 H14         1.3830    8.0580    0.9830 hc        1 MOL      0.027338
     35 H15         2.3460    6.6820    1.4950 hc        1 MOL      0.027338
     36 H16         1.0920    8.6080    3.5490 hx        1 MOL      0.110168
     37 H17         2.6720    8.7700    2.8020 hx        1 MOL      0.110168
     38 H18         3.3980    7.0610    4.2970 hn        1 MOL      0.317741
     39 H19         2.0660    7.4980    4.9600 hn        1 MOL      0.317741
     40 H20         1.9600    6.1550    4.0210 hn        1 MOL      0.317741
     41 N4         -2.8770    4.3920   -1.2050 n         1 MOL     -0.405177
     42 C13        -3.8820    4.2910   -2.3080 c3        1 MOL      0.124890
     43 C14        -5.1400    3.3670   -1.9850 c         1 MOL      0.274255
     44 O6         -6.1330    3.3370   -2.6810 o         1 MOL     -0.499395
     45 C15        -3.1610    3.6720   -3.5420 c3        1 MOL     -0.327012
     46 C16        -2.6470    2.2400   -3.3400 c         1 MOL      0.859048
     47 O7         -1.7760    1.9140   -4.1890 o         1 MOL     -0.731576
     48 O8         -3.0700    1.4090   -2.5080 o         1 MOL     -0.731576
     49 H21        -2.6520    3.5220   -0.7520 hn        1 MOL      0.279548
     50 H22        -4.2810    5.2490   -2.6480 h1        1 MOL      0.110918
     51 H23        -2.3320    4.2960   -3.9030 hc        1 MOL      0.083168
     52 H24        -3.7940    3.6300   -4.4280 hc        1 MOL      0.083168
     53 N5         -5.1880    2.7270   -0.7770 n         1 MOL      0.124685
     54 C17        -6.3900    2.2990   -0.0650 c3        1 MOL     -0.478870
     55 C18        -7.0640    1.0190   -0.5630 c         1 MOL      0.650399
     56 O9         -8.1320    0.6660   -0.0420 o         1 MOL     -0.597254
     57 H25        -4.3710    2.6710   -0.1810 hn        1 MOL     -0.051188
     58 H26        -7.0800    3.1300   -0.1850 h1        1 MOL      0.182285
     59 H27        -6.1100    2.0510    0.9570 h1        1 MOL      0.182285
     60 N6         -6.3750    0.1920   -1.3950 n         1 MOL     -0.486067
     61 C19        -7.0090   -1.0860   -1.8620 c3        1 MOL      0.057836
     62 C20        -7.2560   -2.1440   -0.7740 c         1 MOL      0.369895
     63 O10        -7.9370   -3.1680   -1.0410 o         1 MOL     -0.569219
     64 C21        -6.0110   -1.6740   -2.9540 c3        1 MOL     -0.276178
     65 C22        -4.5460   -1.7910   -2.6550 c         1 MOL      0.767984
     66 O11        -3.7330   -1.5250   -3.5280 o         1 MOL     -0.685760
     67 O12        -4.2150   -2.0600   -1.4740 o         1 MOL     -0.685760
     68 H28        -5.3820    0.3790   -1.3950 hn        1 MOL      0.361634
     69 H29        -8.0100   -0.8920   -2.2510 h1        1 MOL      0.102252
     70 H30        -6.0420   -1.0040   -3.8140 hc        1 MOL      0.070738
     71 H31        -6.3900   -2.6510   -3.2540 hc        1 MOL      0.070738
     72 N7         -6.6410   -1.9730    0.3700 n         1 MOL     -0.022721
     73 C23        -6.7970   -2.8980    1.4940 c3        1 MOL     -0.400478
     74 C24        -5.6620   -3.9480    1.6580 c         1 MOL      0.637802
     75 O13        -5.7230   -4.8620    2.4460 o         1 MOL     -0.571323
     76 H32        -6.1240   -1.1110    0.4980 hn        1 MOL      0.283708
     77 H33        -7.7310   -3.4130    1.2550 h1        1 MOL      0.144727
     78 H34        -6.8840   -2.1700    2.3030 h1        1 MOL      0.144727
     79 N8         -4.6000   -3.7730    0.8400 n         1 MOL     -0.204253
     80 C25        -3.3340   -4.5560    0.8560 c3        1 MOL     -0.357539
     81 C26        -2.0920   -3.5580    1.0440 c         1 MOL      0.848835
     82 O14        -2.0870   -2.4340    0.5740 o         1 MOL     -0.660528
     83 C27        -3.1760   -5.3300   -0.4200 c3        1 MOL      0.478487
     84 C28        -3.9500   -6.5930   -0.4160 c3        1 MOL     -0.286108
     85 O15        -3.6020   -4.6830   -1.5900 oh        1 MOL     -0.647674
     86 H35        -4.5020   -2.9300    0.2890 hn        1 MOL      0.150343
     87 H36        -3.3920   -5.1710    1.7550 h1        1 MOL      0.132763
     88 H37        -2.1220   -5.5500   -0.5650 h1        1 MOL     -0.036863
     89 H38        -3.9060   -3.7850   -1.4410 ho        1 MOL      0.398477
     90 H39        -3.7380   -7.4200   -1.0830 hc        1 MOL      0.070070
     91 H40        -3.7820   -7.0330    0.5710 hc        1 MOL      0.070070
     92 H41        -5.0230   -6.3680   -0.4460 hc        1 MOL      0.070070
     93 N9         -1.0380   -3.9870    1.7780 n         1 MOL     -0.772877
     94 C29         0.1650   -3.2090    2.0220 c3        1 MOL      0.183885
     95 C30         1.3420   -3.8540    1.2610 c         1 MOL      0.517410
     96 O16         1.7860   -4.9960    1.5680 o         1 MOL     -0.567797
     97 C31         0.5040   -2.9830    3.5040 c3        1 MOL      0.140158
     98 C32        -0.4840   -2.0510    4.2760 c3        1 MOL      0.125357
     99 C33         1.9150   -2.3860    3.7500 c3        1 MOL     -0.395668
    100 C34        -0.3280   -2.2950    5.7820 c3        1 MOL     -0.308641
    101 H42        -1.0190   -4.9350    2.1180 hn        1 MOL      0.351958
    102 H43         0.0160   -2.1800    1.6970 h1        1 MOL      0.022391
    103 H44         0.4890   -4.0060    3.8850 hc        1 MOL     -0.005298
    104 H45        -1.5250   -2.2480    4.0360 hc        1 MOL      0.010214
    105 H46        -0.3260   -0.9920    4.0510 hc        1 MOL      0.010214
    106 H47         2.1880   -2.3850    4.8050 hc        1 MOL      0.094479
    107 H48         2.6450   -3.0870    3.3430 hc        1 MOL      0.094479
    108 H49         1.9380   -1.4180    3.2590 hc        1 MOL      0.094479
    109 H50        -1.0500   -1.7940    6.4300 hc        1 MOL      0.070831
    110 H51        -0.5100   -3.3720    5.8300 hc        1 MOL      0.070831
    111 H52         0.6590   -1.9150    6.0440 hc        1 MOL      0.070831
    112 N10         1.8840   -3.1420    0.2800 n         1 MOL     -0.291486
    113 C35         3.1730   -3.4100   -0.4330 c3        1 MOL     -0.017393
    114 C36         4.5140   -3.0760    0.1840 c         1 MOL      0.370649
    115 O17         4.6290   -2.2980    1.1730 o         1 MOL     -0.362710
    116 C37         3.2160   -2.6640   -1.7520 c3        1 MOL      0.001220
    117 C38         2.0530   -2.8910   -2.7410 c3        1 MOL     -0.355334
    118 O18         3.4030   -1.3040   -1.6260 oh        1 MOL     -0.470862
    119 H53         1.4240   -2.2500    0.1370 hn        1 MOL      0.277655
    120 H54         3.2280   -4.4780   -0.6260 h1        1 MOL      0.095736
    121 H55         4.1310   -2.9660   -2.2420 h1        1 MOL      0.103551
    122 H56         2.5470   -1.0170   -1.3260 ho        1 MOL      0.356897
    123 H57         1.2420   -2.2540   -2.3740 hc        1 MOL      0.116471
    124 H58         2.3100   -2.6290   -3.7620 hc        1 MOL      0.116471
    125 H59         1.6740   -3.9120   -2.8040 hc        1 MOL      0.116471
    126 N11         5.5880   -3.6610   -0.3750 n         1 MOL     -0.351003
    127 C39         6.9860   -3.3080    0.0520 c3        1 MOL      0.082860
    128 C40         7.2100   -1.8340   -0.1290 c         1 MOL      0.209080
    129 O19         7.6590   -1.1850    0.8510 o         1 MOL     -0.436936
    130 C41         8.0510   -4.0690   -0.7300 c3        1 MOL      0.204175
    131 C42         8.4740   -5.4610   -0.2440 c3        1 MOL     -0.266195
    132 O20         7.5510   -4.3150   -2.0390 oh        1 MOL     -0.649268
    133 H60         5.4180   -4.1830   -1.2210 hn        1 MOL      0.284771
    134 H61         7.0750   -3.4540    1.1260 h1        1 MOL      0.119405
    135 H62         9.0050   -3.5550   -0.7490 h1        1 MOL      0.070520
    136 H63         8.1020   -5.0010   -2.4420 ho        1 MOL      0.429133
    137 H64         9.3380   -5.8590   -0.7760 hc        1 MOL      0.079418
    138 H65         8.7360   -5.3790    0.8050 hc        1 MOL      0.079418
    139 H66         7.5950   -6.0820   -0.4290 hc        1 MOL      0.079418
    140 N12         6.9390   -1.1730   -1.2670 n         1 MOL     -0.155292
    141 C43         7.0370    0.2800   -1.5370 c3        1 MOL     -0.056505
    142 C44         6.3860    1.0760   -0.4520 c         1 MOL      0.397431
    143 O21         7.0110    1.9960    0.0460 o         1 MOL     -0.547713
    144 C45         6.4480    0.6620   -2.9740 c3        1 MOL      0.031695
    145 C46         6.8750    1.9690   -3.5900 c3        1 MOL      0.002185
    146 C47         6.3410    2.1710   -4.9500 c3        1 MOL      0.147169
    147 C48         6.6610    3.5730   -5.5330 c3        1 MOL     -0.144552
    148 N13         6.0710    4.6860   -4.7710 n4        1 MOL     -0.292061
    149 H67         6.8080   -1.7330   -2.0970 hn        1 MOL      0.203106
    150 H68         8.0840    0.5670   -1.5770 h1        1 MOL      0.079750
    151 H69         5.3670    0.7010   -2.8220 hc        1 MOL      0.007118
    152 H70         6.6330   -0.1840   -3.6360 hc        1 MOL      0.007118
    153 H71         7.9660    1.8950   -3.5850 hc        1 MOL     -0.011558
    154 H72         6.4600    2.7450   -2.9590 hc        1 MOL     -0.011558
    155 H73         5.2580    2.0350   -4.8650 hc        1 MOL      0.010712
    156 H74         6.7150    1.4320   -5.6590 hc        1 MOL      0.010712
    157 H75         6.1980    3.5530   -6.5190 hx        1 MOL      0.124472
    158 H76         7.7500    3.6370   -5.5470 hx        1 MOL      0.124472
    159 H77         6.4310    4.6350   -3.8260 hn        1 MOL      0.316460
    160 H78         6.2330    5.6250   -5.1000 hn        1 MOL      0.316460
    161 H79         5.0660    4.5550   -4.7920 hn        1 MOL      0.316460
    162 N14         5.2080    0.6850   -0.0590 n         1 MOL      0.216373
    163 C49         4.3190    1.3570    0.9240 c3        1 MOL     -0.684250
    164 C50         4.8900    1.1760    2.3520 c         1 MOL      0.682125
    165 O22         4.8980    2.1770    3.0590 o         1 MOL     -0.588452
    166 C51         2.8590    0.8700    0.9160 c3        1 MOL      0.139809
    167 C52         2.1020    1.2600   -0.3530 c3        1 MOL     -0.114523
    168 C53         0.7470    0.5850   -0.4310 c         1 MOL      0.755548
    169 O23        -0.2500    1.3480   -0.5670 o         1 MOL     -0.749176
    170 O24         0.6230   -0.6640   -0.5790 o         1 MOL     -0.749176
    171 H80         4.8760   -0.2150   -0.4010 hn        1 MOL      0.014302
    172 H81         4.2510    2.4280    0.7230 h1        1 MOL      0.189900
    173 H82         2.3930    1.2580    1.8210 hc        1 MOL      0.032463
    174 H83         2.7570   -0.2060    1.0720 hc        1 MOL      0.032463
    175 H84         2.6230    1.0070   -1.2760 hc        1 MOL      0.020034
    176 H85         1.9280    2.3350   -0.2920 hc        1 MOL      0.020034
    177 N15         5.3150   -0.0330    2.7520 n         1 MOL     -0.188780
    178 C54         5.9020   -0.2920    4.0660 c3        1 MOL     -0.333387
    179 H86         5.8910   -1.3630    4.2630 h1        1 MOL      0.123319
    180 H87         6.9300    0.0690    4.0830 h1        1 MOL      0.123319
    181 H88         5.3220    0.2240    4.8310 h1        1 MOL      0.123319
    182 H89         5.2700   -0.8420    2.1430 hn        1 MOL      0.173741
    183 Ca1        -1.9070   -0.6990   -1.4110 Ca        1 MOL      1.743792
    184 O25        -0.7970   -0.3550   -3.6750 oh        1 MOL     -0.915336
    185 H90        -1.1620    0.4800   -3.9700 ho        1 MOL      0.412751
    186 H91        -0.5080   -0.7890   -4.4830 ho        1 MOL      0.412751
    187 O26        -1.2290   -3.2900   -2.2560 oh        1 MOL     -0.915336
    188 H92        -1.9160   -3.9370   -2.1040 ho        1 MOL      0.412751
    189 H93        -0.8120   -3.5680   -3.0670 ho        1 MOL      0.412751
@<TRIPOS>BOND
     1    1    2 1   
     2    1    4 1   
     3    1    5 1   
     4    1    6 1   
     5    2    3 2   
     6    2    7 1   
     7    7    8 1   
     8    7   15 1   
     9    8    9 1   
    10    8   11 1   
    11    8   16 1   
    12    9   10 2   
    13    9   19 1   
    14   11   12 1   
    15   11   17 1   
    16   11   18 1   
    17   12   13 1   
    18   12   14 1   
    19   19   20 1   
    20   19   28 1   
    21   20   21 1   
    22   20   23 1   
    23   20   29 1   
    24   21   22 2   
    25   21   41 1   
    26   23   24 1   
    27   23   30 1   
    28   23   31 1   
    29   24   25 1   
    30   24   32 1   
    31   24   33 1   
    32   25   26 1   
    33   25   34 1   
    34   25   35 1   
    35   26   27 1   
    36   26   36 1   
    37   26   37 1   
    38   27   38 1   
    39   27   39 1   
    40   27   40 1   
    41   41   42 1   
    42   41   49 1   
    43   42   43 1   
    44   42   45 1   
    45   42   50 1   
    46   43   44 2   
    47   43   53 1   
    48   45   46 1   
    49   45   51 1   
    50   45   52 1   
    51   46   47 1   
    52   46   48 1   
    53   53   54 1   
    54   53   57 1   
    55   54   55 1   
    56   54   58 1   
    57   54   59 1   
    58   55   56 2   
    59   55   60 1   
    60   60   61 1   
    61   60   68 1   
    62   61   62 1   
    63   61   64 1   
    64   61   69 1   
    65   62   63 2   
    66   62   72 1   
    67   64   65 1   
    68   64   70 1   
    69   64   71 1   
    70   65   66 1   
    71   65   67 1   
    72   72   73 1   
    73   72   76 1   
    74   73   74 1   
    75   73   77 1   
    76   73   78 1   
    77   74   75 2   
    78   74   79 1   
    79   79   80 1   
    80   79   86 1   
    81   80   81 1   
    82   80   83 1   
    83   80   87 1   
    84   81   82 2   
    85   81   93 1   
    86   83   84 1   
    87   83   85 1   
    88   83   88 1   
    89   84   90 1   
    90   84   91 1   
    91   84   92 1   
    92   85   89 1   
    93   93   94 1   
    94   93  101 1   
    95   94   95 1   
    96   94   97 1   
    97   94  102 1   
    98   95   96 2   
    99   95  112 1   
   100   97   98 1   
   101   97   99 1   
   102   97  103 1   
   103   98  100 1   
   104   98  104 1   
   105   98  105 1   
   106   99  106 1   
   107   99  107 1   
   108   99  108 1   
   109  100  109 1   
   110  100  110 1   
   111  100  111 1   
   112  112  113 1   
   113  112  119 1   
   114  113  114 1   
   115  113  116 1   
   116  113  120 1   
   117  114  115 2   
   118  114  126 1   
   119  116  117 1   
   120  116  118 1   
   121  116  121 1   
   122  117  123 1   
   123  117  124 1   
   124  117  125 1   
   125  118  122 1   
   126  126  127 1   
   127  126  133 1   
   128  127  128 1   
   129  127  130 1   
   130  127  134 1   
   131  128  129 2   
   132  128  140 1   
   133  130  131 1   
   134  130  132 1   
   135  130  135 1   
   136  131  137 1   
   137  131  138 1   
   138  131  139 1   
   139  132  136 1   
   140  140  141 1   
   141  140  149 1   
   142  141  142 1   
   143  141  144 1   
   144  141  150 1   
   145  142  143 2   
   146  142  162 1   
   147  144  145 1   
   148  144  151 1   
   149  144  152 1   
   150  145  146 1   
   151  145  153 1   
   152  145  154 1   
   153  146  147 1   
   154  146  155 1   
   155  146  156 1   
   156  147  148 1   
   157  147  157 1   
   158  147  158 1   
   159  148  159 1   
   160  148  160 1   
   161  148  161 1   
   162  162  163 1   
   163  162  171 1   
   164  163  164 1   
   165  163  166 1   
   166  163  172 1   
   167  164  165 2   
   168  164  177 1   
   169  166  167 1   
   170  166  173 1   
   171  166  174 1   
   172  167  168 1   
   173  167  175 1   
   174  167  176 1   
   175  168  169 1   
   176  168  170 1   
   177  177  178 1   
   178  177  182 1   
   179  178  179 1   
   180  178  180 1   
   181  178  181 1   
   182  184  185 1   
   183  184  186 1   
   184  187  188 1   
   185  187  189 1   
@<TRIPOS>SUBSTRUCTURE
     1 MOL         1 TEMP              0 ****  ****    0 ROOT
