@<TRIPOS>MOLECULE
MOL
  175   173     1     0     0
SMALL
resp


@<TRIPOS>ATOM
      1 C1          0.4420    3.8520    5.5700 c3        1 MOL     -0.318816
      2 C2         -0.0920    3.9290    4.1210 c         1 MOL      0.704022
      3 O1          0.6360    4.0210    3.1700 o         1 MOL     -0.545940
      4 H1         -0.2780    4.3110    6.2470 hc        1 MOL      0.073637
      5 H2          0.5870    2.8080    5.8490 hc        1 MOL      0.073637
      6 H3          1.3920    4.3820    5.6360 hc        1 MOL      0.073637
      7 N1         -1.3850    3.6960    3.9770 n         1 MOL     -0.632771
      8 C3         -2.1000    3.4800    2.7100 c3        1 MOL      0.197037
      9 C4         -2.0370    4.7200    1.7440 c         1 MOL      0.571381
     10 O2         -2.1560    5.8960    2.1050 o         1 MOL     -0.575633
     11 C5         -3.4950    3.0240    2.9610 c3        1 MOL     -0.538615
     12 C6         -4.2320    2.4570    1.7180 c         1 MOL      0.889557
     13 O3         -5.3700    1.9810    1.8630 o         1 MOL     -0.695236
     14 O4         -3.6290    2.2690    0.6300 o         1 MOL     -0.695236
     15 H4         -1.9860    3.6190    4.7730 hn        1 MOL      0.325998
     16 H5         -1.5670    2.6290    2.2970 h1        1 MOL      0.116445
     17 H6         -3.9840    3.9230    3.3330 hc        1 MOL      0.114900
     18 H7         -3.4380    2.2580    3.7370 hc        1 MOL      0.114900
     19 N2         -1.9400    4.4200    0.4130 n         1 MOL     -0.536853
     20 C7         -2.0220    5.4170   -0.6840 c3        1 MOL      0.373788
     21 C8         -3.2650    5.1910   -1.6400 c         1 MOL      0.336051
     22 O5         -3.5190    6.0210   -2.5120 o         1 MOL     -0.551540
     23 C9         -0.6830    5.4770   -1.3670 c3        1 MOL     -0.224680
     24 H8         -1.7300    3.5080    0.0420 hn        1 MOL      0.350775
     25 H9         -2.1810    6.4170   -0.2840 h1        1 MOL     -0.007304
     26 H10         0.1500    5.4480   -0.6550 hc        1 MOL      0.050630
     27 H11        -0.6140    4.6150   -2.0410 hc        1 MOL      0.050630
     28 H12        -0.4780    6.4080   -1.8930 hc        1 MOL      0.050630
     29 N3         -3.9150    3.9950   -1.5840 n         1 MOL     -0.285321
     30 C10        -4.7840    3.4820   -2.7130 c3        1 MOL      0.167120
     31 C11        -5.9860    2.6090   -2.3630 c         1 MOL      0.240006
     32 O6         -6.8550    2.4540   -3.2070 o         1 MOL     -0.527889
     33 C12        -3.9830    2.6330   -3.6920 c3        1 MOL     -0.236770
     34 C13        -3.1800    1.5570   -3.0090 c         1 MOL      0.784555
     35 O7         -3.6710    0.9670   -2.0170 o         1 MOL     -0.720204
     36 O8         -2.0130    1.3430   -3.3570 o         1 MOL     -0.720204
     37 H13        -3.6730    3.3730   -0.8230 hn        1 MOL      0.133024
     38 H14        -5.1430    4.3850   -3.2130 h1        1 MOL      0.068645
     39 H15        -3.3060    3.2800   -4.2520 hc        1 MOL      0.054437
     40 H16        -4.6150    2.1490   -4.4340 hc        1 MOL      0.054437
     41 N4         -6.0200    2.0080   -1.1820 n         1 MOL     -0.006776
     42 C14        -7.2080    1.2580   -0.6570 c3        1 MOL     -0.240857
     43 C15        -7.3300   -0.1610   -1.3570 c         1 MOL      0.489700
     44 O9         -8.4310   -0.7360   -1.3720 o         1 MOL     -0.590705
     45 H17        -5.2740    2.1600   -0.5230 hn        1 MOL      0.051079
     46 H18        -8.1330    1.8010   -0.8260 h1        1 MOL      0.112771
     47 H19        -6.9580    1.2080    0.4040 h1        1 MOL      0.112771
     48 N5         -6.1670   -0.6830   -1.7750 n         1 MOL     -0.217812
     49 C16        -6.0130   -1.9420   -2.4360 c3        1 MOL      0.100569
     50 C17        -6.0480   -3.0850   -1.4250 c         1 MOL      0.361342
     51 O10        -5.9990   -4.2330   -1.8840 o         1 MOL     -0.508621
     52 C18        -4.7520   -2.1040   -3.3940 c3        1 MOL     -0.266381
     53 C19        -3.3310   -2.2770   -2.8140 c         1 MOL      0.586562
     54 N6         -2.4250   -2.7630   -3.6340 n         1 MOL     -0.622901
     55 O11        -3.1960   -2.0420   -1.6480 o         1 MOL     -0.482281
     56 H20        -5.2760   -0.2090   -1.6550 hn        1 MOL      0.235978
     57 H21        -6.8940   -2.0530   -3.0620 h1        1 MOL      0.077975
     58 H22        -4.7050   -1.2300   -4.0440 hc        1 MOL      0.057275
     59 H23        -4.9250   -3.0120   -3.9610 hc        1 MOL      0.057275
     60 H24        -2.7470   -2.8210   -4.5870 hn        1 MOL      0.310259
     61 H25        -1.4280   -2.6470   -3.5140 hn        1 MOL      0.310259
     62 N7         -6.2550   -2.8270   -0.1060 n         1 MOL     -0.212295
     63 C20        -6.3920   -3.8030    1.0260 c3        1 MOL     -0.202300
     64 C21        -5.0710   -4.3370    1.6750 c         1 MOL      0.499906
     65 O12        -5.0390   -5.0040    2.7400 o         1 MOL     -0.583456
     66 H26        -6.3840   -1.8600    0.1600 hn        1 MOL      0.216025
     67 H27        -6.9710   -4.6910    0.7570 h1        1 MOL      0.108762
     68 H28        -6.9680   -3.3020    1.8160 h1        1 MOL      0.108762
     69 N8         -3.9660   -3.9390    1.0890 n         1 MOL     -0.282360
     70 C22        -2.5810   -4.4020    1.4400 c3        1 MOL     -0.057625
     71 C23        -1.5960   -3.2650    1.5110 c         1 MOL      0.506085
     72 O13        -1.7660   -2.2310    0.8540 o         1 MOL     -0.621990
     73 C24        -2.0400   -5.4700    0.5190 c3        1 MOL      0.528593
     74 C25        -2.9740   -6.6960    0.6520 c3        1 MOL     -0.257058
     75 O14        -2.2620   -5.0250   -0.7510 oh        1 MOL     -0.633284
     76 H29        -4.0820   -3.2130    0.3960 hn        1 MOL      0.259205
     77 H30        -2.6860   -4.8840    2.4150 h1        1 MOL      0.061063
     78 H31        -1.0610   -5.7200    0.9050 h1        1 MOL     -0.073235
     79 H32        -2.2180   -4.0600   -0.7200 ho        1 MOL      0.378384
     80 H33        -3.1530   -6.9370    1.6970 hc        1 MOL      0.055140
     81 H34        -3.9130   -6.5910    0.1050 hc        1 MOL      0.055140
     82 H35        -2.4790   -7.6000    0.2860 hc        1 MOL      0.055140
     83 N9         -0.5840   -3.4900    2.3150 n         1 MOL     -0.489324
     84 C26         0.6970   -2.7830    2.2710 c3        1 MOL      0.010165
     85 C27         1.5390   -3.1870    1.0210 c         1 MOL      0.651099
     86 O15         1.8330   -4.3710    0.8360 o         1 MOL     -0.596775
     87 C28         1.4460   -2.9280    3.6180 c3        1 MOL      0.147661
     88 C29         1.0210   -1.8940    4.6220 c3        1 MOL      0.038001
     89 C30         3.0310   -2.9570    3.6070 c3        1 MOL     -0.266767
     90 C31         1.3810   -2.0060    6.1440 c3        1 MOL     -0.032423
     91 H36        -0.6970   -4.3240    2.8600 hn        1 MOL      0.280104
     92 H37         0.4650   -1.7170    2.2150 h1        1 MOL      0.028816
     93 H38         1.1460   -3.8920    4.0400 hc        1 MOL     -0.016374
     94 H39        -0.0600   -1.8890    4.7130 hc        1 MOL     -0.016354
     95 H40         1.3630   -0.9580    4.1660 hc        1 MOL     -0.016354
     96 H41         3.3890   -1.9300    3.6040 hc        1 MOL      0.057255
     97 H42         3.3760   -3.5180    4.4770 hc        1 MOL      0.057255
     98 H43         3.4170   -3.4010    2.6900 hc        1 MOL      0.057255
     99 H44         0.9570   -1.3130    6.8620 hc        1 MOL      0.003715
    100 H45         1.0570   -2.9920    6.4760 hc        1 MOL      0.003715
    101 H46         2.4680   -1.9700    6.1620 hc        1 MOL      0.003715
    102 N10         1.8710   -2.1320    0.3190 n         1 MOL     -0.252455
    103 C32         2.6150   -2.0920   -0.9330 c3        1 MOL     -0.079917
    104 C33         4.0940   -1.7240   -0.6570 c         1 MOL      0.515173
    105 O16         4.4060   -1.2920    0.4520 o         1 MOL     -0.423589
    106 C34         1.9860   -1.0530   -1.9270 c3        1 MOL     -0.156476
    107 C35         0.5340   -1.4250   -2.2850 c         1 MOL      0.728380
    108 O17        -0.3380   -0.8050   -1.6120 o         1 MOL     -0.658903
    109 O18         0.2920   -2.3010   -3.1550 o         1 MOL     -0.658903
    110 H47         1.5650   -1.2500    0.7100 hn        1 MOL      0.171067
    111 H48         2.5550   -3.0210   -1.4890 h1        1 MOL      0.084940
    112 H49         2.5650   -0.9990   -2.8490 hc        1 MOL      0.035345
    113 H50         2.0350   -0.1450   -1.3310 hc        1 MOL      0.035345
    114 N11         4.9840   -1.8330   -1.6290 n         1 MOL     -0.584726
    115 C36         6.4720   -1.5660   -1.4900 c3        1 MOL      0.272597
    116 C37         6.7660   -0.1330   -1.0770 c         1 MOL      0.477286
    117 O19         7.4530    0.0820   -0.1190 o         1 MOL     -0.516046
    118 C38         7.2930   -2.0430   -2.7130 c3        1 MOL     -0.126506
    119 C39         8.7730   -1.6670   -2.6220 ca        1 MOL      0.101421
    120 C40         9.4850   -2.1310   -1.4820 ca        1 MOL     -0.246012
    121 C41         9.3800   -0.7560   -3.5480 ca        1 MOL     -0.246012
    122 C42        10.8100   -1.7020   -1.2410 ca        1 MOL      0.004642
    123 C43        10.7180   -0.3290   -3.3030 ca        1 MOL      0.004642
    124 C44        11.4080   -0.8200   -2.1720 ca        1 MOL     -0.223540
    125 H51         4.7540   -2.1540   -2.5540 hn        1 MOL      0.310329
    126 H52         6.7640   -2.2560   -0.6940 h1        1 MOL      0.064704
    127 H53         6.8540   -1.6430   -3.6180 hc        1 MOL      0.044649
    128 H54         7.1510   -3.1160   -2.8050 hc        1 MOL      0.044649
    129 H55         8.9640   -2.7680   -0.7770 ha        1 MOL      0.136166
    130 H56         8.8510   -0.4400   -4.4410 ha        1 MOL      0.136166
    131 H57        11.4350   -2.1460   -0.4880 ha        1 MOL      0.089570
    132 H58        11.2830    0.2870   -3.9840 ha        1 MOL      0.089570
    133 H59        12.4010   -0.4410   -1.9360 ha        1 MOL      0.123470
    134 N12         6.1630    0.9200   -1.6580 n         1 MOL     -0.272490
    135 C45         6.2480    2.2860   -1.2800 c3        1 MOL      0.251455
    136 C46         5.5940    2.5460    0.0750 c         1 MOL      0.149839
    137 O20         6.0230    3.4950    0.7440 o         1 MOL     -0.503209
    138 C47         5.6020    3.1040   -2.3740 c3        1 MOL     -0.132032
    139 C48         5.6470    2.1720   -3.6110 c3        1 MOL     -0.016800
    140 C49         5.4530    0.8300   -2.9830 c3        1 MOL     -0.006119
    141 H60         7.2840    2.6170   -1.2420 h1        1 MOL      0.034642
    142 H61         4.5560    3.3220   -2.1360 hc        1 MOL      0.049328
    143 H62         6.2420    3.9690   -2.5220 hc        1 MOL      0.049328
    144 H63         4.8810    2.3510   -4.3620 hc        1 MOL      0.028031
    145 H64         6.6190    2.2590   -4.0960 hc        1 MOL      0.028031
    146 H65         4.4150    0.5550   -2.7830 h1        1 MOL      0.038109
    147 H66         5.8820    0.1590   -3.7170 h1        1 MOL      0.038109
    148 N13         4.6570    1.7370    0.5620 n         1 MOL      0.158636
    149 C50         4.0000    1.9030    1.8350 c3        1 MOL     -0.210836
    150 C51         4.7860    1.2520    2.9280 c         1 MOL      0.486425
    151 O21         4.7510    1.7800    4.0300 o         1 MOL     -0.573026
    152 C52         2.6060    1.3670    1.7160 c3        1 MOL     -0.080009
    153 C53         1.8500    2.1620    0.7340 c3        1 MOL     -0.267721
    154 C54         0.4030    1.6430    0.6310 c         1 MOL      0.548424
    155 O22        -0.0280    0.7600    1.3870 o         1 MOL     -0.682013
    156 O23        -0.4390    2.1420   -0.1380 o         1 MOL     -0.682013
    157 H67         4.2660    0.9950   -0.0040 hn        1 MOL      0.129257
    158 H68         3.9070    2.9590    2.0770 h1        1 MOL      0.134538
    159 H69         2.0980    1.6190    2.6440 hc        1 MOL      0.099781
    160 H70         2.5850    0.3050    1.5220 hc        1 MOL      0.099781
    161 H71         2.3150    2.0990   -0.2450 hc        1 MOL      0.114935
    162 H72         1.8870    3.2130    1.0410 hc        1 MOL      0.114935
    163 N14         5.4690    0.1680    2.5920 n         1 MOL      0.024370
    164 C55         6.4440   -0.5350    3.4000 c3        1 MOL     -0.286298
    165 H73         6.0770   -0.6140    4.4240 h1        1 MOL      0.096131
    166 H74         6.6020   -1.5330    2.9930 h1        1 MOL      0.096131
    167 H75         7.3850    0.0150    3.3940 h1        1 MOL      0.096131
    168 H76         5.3750   -0.0860    1.6130 hn        1 MOL     -0.028030
    169 Ca1        -2.1810    0.1410   -0.1630 Ca        1 MOL      1.686314
    170 O24        -4.6990   -0.5040    0.9190 oh        1 MOL     -0.732816
    171 H77        -5.0150    0.3750    1.1060 ho        1 MOL      0.364802
    172 H78        -4.6150   -0.9190    1.7730 ho        1 MOL      0.364802
    173 O25        -2.2050   -0.1490    2.7020 oh        1 MOL     -0.732816
    174 H79        -2.3820    0.0250    3.6190 ho        1 MOL      0.364802
    175 H80        -1.2870    0.0870    2.5890 ho        1 MOL      0.364802
@<TRIPOS>BOND
     1    1    2 1   
     2    1    4 1   
     3    1    5 1   
     4    1    6 1   
     5    2    3 2   
     6    2    7 1   
     7    7    8 1   
     8    7   15 1   
     9    8    9 1   
    10    8   11 1   
    11    8   16 1   
    12    9   10 2   
    13    9   19 1   
    14   11   12 1   
    15   11   17 1   
    16   11   18 1   
    17   12   13 1   
    18   12   14 1   
    19   19   20 1   
    20   19   24 1   
    21   20   21 1   
    22   20   23 1   
    23   20   25 1   
    24   21   22 2   
    25   21   29 1   
    26   23   26 1   
    27   23   27 1   
    28   23   28 1   
    29   29   30 1   
    30   29   37 1   
    31   30   31 1   
    32   30   33 1   
    33   30   38 1   
    34   31   32 2   
    35   31   41 1   
    36   33   34 1   
    37   33   39 1   
    38   33   40 1   
    39   34   35 1   
    40   34   36 1   
    41   41   42 1   
    42   41   45 1   
    43   42   43 1   
    44   42   46 1   
    45   42   47 1   
    46   43   44 2   
    47   43   48 1   
    48   48   49 1   
    49   48   56 1   
    50   49   50 1   
    51   49   52 1   
    52   49   57 1   
    53   50   51 2   
    54   50   62 1   
    55   52   53 1   
    56   52   58 1   
    57   52   59 1   
    58   53   54 1   
    59   53   55 2   
    60   54   60 1   
    61   54   61 1   
    62   62   63 1   
    63   62   66 1   
    64   63   64 1   
    65   63   67 1   
    66   63   68 1   
    67   64   65 2   
    68   64   69 1   
    69   69   70 1   
    70   69   76 1   
    71   70   71 1   
    72   70   73 1   
    73   70   77 1   
    74   71   72 2   
    75   71   83 1   
    76   73   74 1   
    77   73   75 1   
    78   73   78 1   
    79   74   80 1   
    80   74   81 1   
    81   74   82 1   
    82   75   79 1   
    83   83   84 1   
    84   83   91 1   
    85   84   85 1   
    86   84   87 1   
    87   84   92 1   
    88   85   86 2   
    89   85  102 1   
    90   87   88 1   
    91   87   89 1   
    92   87   93 1   
    93   88   90 1   
    94   88   94 1   
    95   88   95 1   
    96   89   96 1   
    97   89   97 1   
    98   89   98 1   
    99   90   99 1   
   100   90  100 1   
   101   90  101 1   
   102  102  103 1   
   103  102  110 1   
   104  103  104 1   
   105  103  106 1   
   106  103  111 1   
   107  104  105 2   
   108  104  114 1   
   109  106  107 1   
   110  106  112 1   
   111  106  113 1   
   112  107  108 1   
   113  107  109 1   
   114  114  115 1   
   115  114  125 1   
   116  115  116 1   
   117  115  118 1   
   118  115  126 1   
   119  116  117 2   
   120  116  134 1   
   121  118  119 1   
   122  118  127 1   
   123  118  128 1   
   124  119  120 ar  
   125  119  121 ar  
   126  120  122 ar  
   127  120  129 1   
   128  121  123 ar  
   129  121  130 1   
   130  122  124 ar  
   131  122  131 1   
   132  123  124 ar  
   133  123  132 1   
   134  124  133 1   
   135  134  135 1   
   136  134  140 1   
   137  135  136 1   
   138  135  138 1   
   139  135  141 1   
   140  136  137 2   
   141  136  148 1   
   142  138  139 1   
   143  138  142 1   
   144  138  143 1   
   145  139  140 1   
   146  139  144 1   
   147  139  145 1   
   148  140  146 1   
   149  140  147 1   
   150  148  149 1   
   151  148  157 1   
   152  149  150 1   
   153  149  152 1   
   154  149  158 1   
   155  150  151 2   
   156  150  163 1   
   157  152  153 1   
   158  152  159 1   
   159  152  160 1   
   160  153  154 1   
   161  153  161 1   
   162  153  162 1   
   163  154  155 1   
   164  154  156 1   
   165  163  164 1   
   166  163  168 1   
   167  164  165 1   
   168  164  166 1   
   169  164  167 1   
   170  170  171 1   
   171  170  172 1   
   172  173  174 1   
   173  173  175 1   
@<TRIPOS>SUBSTRUCTURE
     1 MOL         1 TEMP              0 ****  ****    0 ROOT
