@<TRIPOS>MOLECULE
MOL
  172   171     1     0     0
SMALL
resp


@<TRIPOS>ATOM
      1 C1          0.4060    3.7010    5.5440 c3        1 MOL     -0.431596
      2 C2         -0.3370    3.7140    4.2430 c         1 MOL      0.679276
      3 O1          0.2810    4.1410    3.1900 o         1 MOL     -0.540380
      4 H1         -0.2080    4.1620    6.3180 hc        1 MOL      0.111202
      5 H2          0.6300    2.6720    5.8240 hc        1 MOL      0.111202
      6 H3          1.3360    4.2590    5.4380 hc        1 MOL      0.111202
      7 N1         -1.5900    3.2810    4.1490 n         1 MOL     -0.544700
      8 C3         -2.2600    3.0700    2.8820 c3        1 MOL      0.094975
      9 C4         -2.5020    4.4040    2.0790 c         1 MOL      0.589097
     10 O2         -2.7260    5.4790    2.6780 o         1 MOL     -0.579335
     11 C5         -3.6570    2.3000    3.0820 c3        1 MOL     -0.207617
     12 C6         -4.3040    2.0070    1.7490 c         1 MOL      0.550489
     13 O3         -3.5250    1.7200    0.7670 o         1 MOL     -0.609700
     14 O4         -5.5680    2.1860    1.6610 o         1 MOL     -0.609700
     15 H4         -2.0940    2.8830    4.9370 hn        1 MOL      0.297855
     16 H5         -1.5160    2.5560    2.2790 h1        1 MOL      0.042010
     17 H6         -4.3390    2.8890    3.6860 hc        1 MOL      0.049907
     18 H7         -3.4170    1.3600    3.5790 hc        1 MOL      0.049907
     19 N2         -2.5410    4.2880    0.7110 n         1 MOL     -0.511723
     20 C7         -2.6260    5.4190   -0.2580 c3        1 MOL      0.263429
     21 C8         -3.4290    4.9960   -1.4990 c         1 MOL      0.647306
     22 O5         -3.5120    5.7710   -2.4580 o         1 MOL     -0.589263
     23 C9         -1.2310    6.1180   -0.5300 c3        1 MOL     -0.315619
     24 H8         -2.4530    3.3500    0.3560 hn        1 MOL      0.415585
     25 H9         -3.3000    6.1620    0.1670 h1        1 MOL     -0.003301
     26 H10        -0.8790    6.5010    0.4250 hc        1 MOL      0.078841
     27 H11        -0.5680    5.3100   -0.8320 hc        1 MOL      0.078841
     28 H12        -1.3280    6.7930   -1.3800 hc        1 MOL      0.078841
     29 N3         -4.1910    3.8310   -1.4830 n         1 MOL     -0.719972
     30 C10        -5.0170    3.3990   -2.6830 c3        1 MOL      0.235255
     31 C11        -6.2580    2.5530   -2.3880 c         1 MOL      0.309612
     32 O6         -7.0090    2.2060   -3.3230 o         1 MOL     -0.528102
     33 C12        -4.0670    2.6000   -3.4960 c3        1 MOL     -0.073913
     34 C13        -3.4780    1.3790   -2.8780 c         1 MOL      0.772190
     35 O7         -2.2580    1.2060   -2.9120 o         1 MOL     -0.785090
     36 O8         -4.0540    0.7070   -2.0610 o         1 MOL     -0.785090
     37 H13        -4.0980    3.1960   -0.7060 hn        1 MOL      0.307486
     38 H14        -5.3650    4.1530   -3.3840 h1        1 MOL      0.067553
     39 H15        -3.3080    3.3090   -3.8160 hc        1 MOL      0.010993
     40 H16        -4.6210    2.4520   -4.4230 hc        1 MOL      0.010993
     41 N4         -6.5030    2.1730   -1.1250 n         1 MOL     -0.164616
     42 C14        -7.6460    1.3190   -0.7650 c3        1 MOL     -0.298626
     43 C15        -7.6480   -0.1730   -1.1280 c         1 MOL      0.558624
     44 O9         -8.7460   -0.7820   -1.1220 o         1 MOL     -0.612742
     45 H17        -5.8110    2.3930   -0.4310 hn        1 MOL      0.196547
     46 H18        -8.5500    1.7470   -1.2070 h1        1 MOL      0.135904
     47 H19        -7.6730    1.4160    0.3190 h1        1 MOL      0.135904
     48 N5         -6.4780   -0.8270   -1.4150 n         1 MOL     -0.201536
     49 C16        -6.3080   -2.2020   -1.9210 c3        1 MOL     -0.113659
     50 C17        -6.0850   -3.2730   -0.7870 c         1 MOL      0.458662
     51 O10        -5.8730   -4.3970   -1.1200 o         1 MOL     -0.510940
     52 C18        -5.1850   -2.1750   -3.0020 c3        1 MOL     -0.113628
     53 C19        -3.8280   -2.1780   -2.3980 c         1 MOL      0.572182
     54 N6         -2.7310   -2.3470   -3.0610 n         1 MOL     -0.665008
     55 O11        -3.6250   -2.0380   -1.1980 o         1 MOL     -0.449483
     56 H20        -5.6540   -0.2530   -1.2960 hn        1 MOL      0.217639
     57 H21        -7.2560   -2.4300   -2.4000 h1        1 MOL      0.130657
     58 H22        -5.1900   -1.3170   -3.6820 hc        1 MOL      0.059514
     59 H23        -5.2990   -3.0940   -3.5720 hc        1 MOL      0.059514
     60 H24        -2.7360   -2.6830   -4.0080 hn        1 MOL      0.324374
     61 H25        -1.8620   -2.3240   -2.5370 hn        1 MOL      0.324374
     62 N7         -6.1500   -2.9070    0.4700 n         1 MOL     -0.234271
     63 C20        -5.9530   -3.6870    1.7040 c3        1 MOL     -0.344032
     64 C21        -4.6000   -4.3720    1.9810 c         1 MOL      0.552731
     65 O12        -4.5630   -5.0680    2.9370 o         1 MOL     -0.588334
     66 H26        -6.3400   -1.9370    0.6630 hn        1 MOL      0.204623
     67 H27        -6.7500   -4.4270    1.7600 h1        1 MOL      0.149709
     68 H28        -6.0800   -2.9830    2.5250 h1        1 MOL      0.149709
     69 N8         -3.5600   -4.0990    1.2050 n         1 MOL      0.121727
     70 C22        -2.1490   -4.6150    1.4350 c3        1 MOL     -0.313682
     71 C23        -1.1390   -3.5270    1.3750 c         1 MOL      0.390260
     72 O13        -1.2010   -2.6370    0.5450 o         1 MOL     -0.260621
     73 C24        -1.7190   -5.7040    0.4220 c3        1 MOL      0.411070
     74 C25        -2.6400   -6.8270    0.1500 c3        1 MOL     -0.175622
     75 O14        -1.5170   -5.2370   -0.8730 oh        1 MOL     -0.571891
     76 H29        -3.5990   -3.3080    0.5790 hn        1 MOL     -0.035758
     77 H30        -2.1730   -4.9430    2.4780 h1        1 MOL      0.084568
     78 H31        -0.7620   -6.0850    0.7640 h1        1 MOL     -0.038293
     79 H32        -0.9870   -4.4470   -0.7380 ho        1 MOL      0.340123
     80 H33        -3.6670   -6.4540    0.1780 hc        1 MOL      0.040352
     81 H34        -2.3950   -7.4060   -0.7480 hc        1 MOL      0.040352
     82 H35        -2.6150   -7.5700    0.9590 hc        1 MOL      0.040352
     83 N9         -0.0050   -3.6580    2.1170 n         1 MOL     -0.253005
     84 C26         1.0510   -2.6870    2.0600 c3        1 MOL     -0.254732
     85 C27         1.8450   -2.9660    0.8250 c         1 MOL      0.690518
     86 O15         2.3850   -4.0700    0.7080 o         1 MOL     -0.587044
     87 C28         1.8840   -2.6110    3.3660 c3        1 MOL      0.070506
     88 C29         0.9270   -2.2460    4.5450 c3        1 MOL      0.301538
     89 C30         3.2370   -1.8360    3.2810 c3        1 MOL     -0.017425
     90 C31         1.5480   -2.6360    5.9040 c3        1 MOL     -0.401746
     91 H36         0.1610   -4.4740    2.7000 hn        1 MOL      0.264139
     92 H37         0.5950   -1.7040    1.9710 h1        1 MOL      0.043087
     93 H38         2.1160   -3.6590    3.5170 hc        1 MOL     -0.023306
     94 H39        -0.0470   -2.7410    4.4920 hc        1 MOL     -0.063592
     95 H40         0.8170   -1.1680    4.5400 hc        1 MOL     -0.063592
     96 H41         3.8360   -1.9620    4.1800 hc        1 MOL      0.001240
     97 H42         3.7900   -2.2450    2.4330 hc        1 MOL      0.001240
     98 H43         3.0990   -0.7710    3.0960 hc        1 MOL      0.001240
     99 H44         0.8140   -2.3790    6.6690 hc        1 MOL      0.086213
    100 H45         1.7020   -3.7080    5.8700 hc        1 MOL      0.086213
    101 H46         2.4020   -1.9590    5.9480 hc        1 MOL      0.086213
    102 N10         1.7850   -2.0080   -0.1770 n         1 MOL     -0.482755
    103 C32         2.6330   -1.9500   -1.3270 c3        1 MOL      0.225665
    104 C33         4.0710   -1.4850   -0.9690 c         1 MOL      0.321068
    105 O16         4.2430   -0.8690    0.0750 o         1 MOL     -0.236947
    106 C34         2.0420   -1.0740   -2.4130 c3        1 MOL     -0.222356
    107 C35         0.6300   -1.4120   -2.8860 c         1 MOL      0.632860
    108 O17        -0.3340   -1.2360   -2.0610 o         1 MOL     -0.635706
    109 O18         0.4880   -1.8780   -4.0470 o         1 MOL     -0.635706
    110 H47         1.2120   -1.2100    0.0730 hn        1 MOL      0.114154
    111 H48         2.7700   -2.9760   -1.6740 h1        1 MOL      0.039939
    112 H49         2.5950   -1.2130   -3.3480 hc        1 MOL      0.072622
    113 H50         2.0470   -0.0270   -2.1250 hc        1 MOL      0.072622
    114 N11         5.0580   -1.7120   -1.8090 n         1 MOL     -0.596986
    115 C36         6.4540   -1.2910   -1.4710 c3        1 MOL      0.448196
    116 C37         6.6260    0.2310   -1.1130 c         1 MOL      0.182518
    117 O19         7.3760    0.5930   -0.1530 o         1 MOL     -0.469516
    118 C38         7.4040   -1.6500   -2.5590 c3        1 MOL     -0.357261
    119 C39         8.8950   -1.4760   -2.2180 ca        1 MOL      0.207781
    120 C40         9.6020   -2.3520   -1.3080 ca        1 MOL     -0.287939
    121 C41         9.6360   -0.3710   -2.6920 ca        1 MOL     -0.287939
    122 C42        10.9180   -2.1620   -1.0270 ca        1 MOL      0.049526
    123 C43        10.9510   -0.1330   -2.2750 ca        1 MOL      0.049526
    124 C44        11.6530   -1.0670   -1.5530 ca        1 MOL     -0.259193
    125 H51         4.9490   -2.0470   -2.7450 hn        1 MOL      0.321137
    126 H52         6.6850   -1.7910   -0.5290 h1        1 MOL      0.035057
    127 H53         7.2250   -0.9810   -3.4050 hc        1 MOL      0.094367
    128 H54         7.2060   -2.6700   -2.8770 hc        1 MOL      0.094367
    129 H55         9.1100   -3.1970   -0.8420 ha        1 MOL      0.142096
    130 H56         9.0820    0.3820   -3.2400 ha        1 MOL      0.142096
    131 H57        11.4280   -2.9540   -0.4900 ha        1 MOL      0.073416
    132 H58        11.3270    0.8110   -2.6280 ha        1 MOL      0.073416
    133 H59        12.7000   -0.8350   -1.4060 ha        1 MOL      0.128930
    134 N12         5.8950    1.1730   -1.7460 n         1 MOL      0.077909
    135 C45         6.0090    2.5680   -1.3920 c3        1 MOL      0.262027
    136 C46         5.4260    2.8410    0.0140 c         1 MOL      0.089394
    137 O20         5.9300    3.7140    0.7340 o         1 MOL     -0.487694
    138 C47         5.2890    3.4230   -2.4660 c3        1 MOL     -0.273520
    139 C48         5.1230    2.4500   -3.6630 c3        1 MOL      0.081643
    140 C49         5.1320    1.0550   -3.0240 c3        1 MOL     -0.284300
    141 H60         7.0690    2.7910   -1.4280 h1        1 MOL      0.006609
    142 H61         4.2350    3.4960   -2.2020 hc        1 MOL      0.095450
    143 H62         5.8980    4.2770   -2.7360 hc        1 MOL      0.095450
    144 H63         4.1650    2.6310   -4.1630 hc        1 MOL      0.019288
    145 H64         5.8960    2.6100   -4.4060 hc        1 MOL      0.019288
    146 H65         4.0890    0.7810   -2.8610 h1        1 MOL      0.085112
    147 H66         5.7640    0.4380   -3.6580 h1        1 MOL      0.085112
    148 N13         4.5010    2.0090    0.3850 n         1 MOL      0.183934
    149 C50         3.8780    2.2040    1.6740 c3        1 MOL     -0.194083
    150 C51         4.6340    1.4720    2.8010 c         1 MOL      0.374083
    151 O21         4.6470    1.8900    3.9900 o         1 MOL     -0.568181
    152 C52         2.4110    1.7350    1.6840 c3        1 MOL     -0.198940
    153 C53         1.5670    2.4490    0.6260 c3        1 MOL      0.008509
    154 C54         0.2290    1.7320    0.4150 c         1 MOL      0.651158
    155 O22        -0.6990    2.3440   -0.1540 o         1 MOL     -0.735442
    156 O23         0.1090    0.5400    0.6660 o         1 MOL     -0.735442
    157 H67         4.2080    1.2320   -0.1810 hn        1 MOL      0.085793
    158 H68         3.9740    3.2600    1.9570 h1        1 MOL      0.147143
    159 H69         1.8300    1.8490    2.5980 hc        1 MOL      0.123779
    160 H70         2.4100    0.6700    1.4430 hc        1 MOL      0.123779
    161 H71         2.1420    2.4820   -0.3100 hc        1 MOL      0.017071
    162 H72         1.3250    3.4600    0.9580 hc        1 MOL      0.017071
    163 N14         5.3440    0.4200    2.4160 n         1 MOL      0.171982
    164 C55         6.3450   -0.1850    3.2290 c3        1 MOL     -0.113398
    165 H73         6.1800    0.0880    4.2710 h1        1 MOL      0.036619
    166 H74         6.2920   -1.2690    3.1260 h1        1 MOL      0.036619
    167 H75         7.3290    0.1640    2.9140 h1        1 MOL      0.036619
    168 H76         5.2370    0.1630    1.4430 hn        1 MOL     -0.094925
    169 Ca1        -2.0160   -0.1070   -0.5290 Ca        1 MOL      1.733118
    170 O24        -3.4030   -1.2060    1.4460 oh        1 MOL     -1.103226
    171 H77        -4.3550   -1.1900    1.5930 ho        1 MOL      0.486080
    172 H78        -3.0260   -1.0330    2.3090 ho        1 MOL      0.486080
@<TRIPOS>BOND
     1    1    2 1   
     2    1    4 1   
     3    1    5 1   
     4    1    6 1   
     5    2    3 2   
     6    2    7 1   
     7    7    8 1   
     8    7   15 1   
     9    8    9 1   
    10    8   11 1   
    11    8   16 1   
    12    9   10 2   
    13    9   19 1   
    14   11   12 1   
    15   11   17 1   
    16   11   18 1   
    17   12   13 1   
    18   12   14 1   
    19   19   20 1   
    20   19   24 1   
    21   20   21 1   
    22   20   23 1   
    23   20   25 1   
    24   21   22 2   
    25   21   29 1   
    26   23   26 1   
    27   23   27 1   
    28   23   28 1   
    29   29   30 1   
    30   29   37 1   
    31   30   31 1   
    32   30   33 1   
    33   30   38 1   
    34   31   32 2   
    35   31   41 1   
    36   33   34 1   
    37   33   39 1   
    38   33   40 1   
    39   34   35 1   
    40   34   36 1   
    41   41   42 1   
    42   41   45 1   
    43   42   43 1   
    44   42   46 1   
    45   42   47 1   
    46   43   44 2   
    47   43   48 1   
    48   48   49 1   
    49   48   56 1   
    50   49   50 1   
    51   49   52 1   
    52   49   57 1   
    53   50   51 2   
    54   50   62 1   
    55   52   53 1   
    56   52   58 1   
    57   52   59 1   
    58   53   54 1   
    59   53   55 2   
    60   54   60 1   
    61   54   61 1   
    62   62   63 1   
    63   62   66 1   
    64   63   64 1   
    65   63   67 1   
    66   63   68 1   
    67   64   65 2   
    68   64   69 1   
    69   69   70 1   
    70   69   76 1   
    71   70   71 1   
    72   70   73 1   
    73   70   77 1   
    74   71   72 2   
    75   71   83 1   
    76   73   74 1   
    77   73   75 1   
    78   73   78 1   
    79   74   80 1   
    80   74   81 1   
    81   74   82 1   
    82   75   79 1   
    83   83   84 1   
    84   83   91 1   
    85   84   85 1   
    86   84   87 1   
    87   84   92 1   
    88   85   86 2   
    89   85  102 1   
    90   87   88 1   
    91   87   89 1   
    92   87   93 1   
    93   88   90 1   
    94   88   94 1   
    95   88   95 1   
    96   89   96 1   
    97   89   97 1   
    98   89   98 1   
    99   90   99 1   
   100   90  100 1   
   101   90  101 1   
   102  102  103 1   
   103  102  110 1   
   104  103  104 1   
   105  103  106 1   
   106  103  111 1   
   107  104  105 2   
   108  104  114 1   
   109  106  107 1   
   110  106  112 1   
   111  106  113 1   
   112  107  108 1   
   113  107  109 1   
   114  114  115 1   
   115  114  125 1   
   116  115  116 1   
   117  115  118 1   
   118  115  126 1   
   119  116  117 2   
   120  116  134 1   
   121  118  119 1   
   122  118  127 1   
   123  118  128 1   
   124  119  120 ar  
   125  119  121 ar  
   126  120  122 ar  
   127  120  129 1   
   128  121  123 ar  
   129  121  130 1   
   130  122  124 ar  
   131  122  131 1   
   132  123  124 ar  
   133  123  132 1   
   134  124  133 1   
   135  134  135 1   
   136  134  140 1   
   137  135  136 1   
   138  135  138 1   
   139  135  141 1   
   140  136  137 2   
   141  136  148 1   
   142  138  139 1   
   143  138  142 1   
   144  138  143 1   
   145  139  140 1   
   146  139  144 1   
   147  139  145 1   
   148  140  146 1   
   149  140  147 1   
   150  148  149 1   
   151  148  157 1   
   152  149  150 1   
   153  149  152 1   
   154  149  158 1   
   155  150  151 2   
   156  150  163 1   
   157  152  153 1   
   158  152  159 1   
   159  152  160 1   
   160  153  154 1   
   161  153  161 1   
   162  153  162 1   
   163  154  155 1   
   164  154  156 1   
   165  163  164 1   
   166  163  168 1   
   167  164  165 1   
   168  164  166 1   
   169  164  167 1   
   170  170  171 1   
   171  170  172 1   
@<TRIPOS>SUBSTRUCTURE
     1 MOL         1 TEMP              0 ****  ****    0 ROOT
