@<TRIPOS>MOLECULE
MOL
  189   185     1     0     0
SMALL
resp


@<TRIPOS>ATOM
      1 C1          0.6030    1.3210    5.8830 c3        1 MOL     -0.245394
      2 C2         -0.0010    1.5770    4.4850 c         1 MOL      0.663915
      3 O1          0.6140    2.2760    3.7140 o         1 MOL     -0.611803
      4 H1         -0.1860    1.0150    6.5690 hc        1 MOL      0.060573
      5 H2          1.3520    0.5320    5.8180 hc        1 MOL      0.060573
      6 H3          1.0690    2.2360    6.2510 hc        1 MOL      0.060573
      7 N1         -1.1650    1.0160    4.1340 n         1 MOL     -0.390275
      8 C3         -1.9050    1.2560    2.9110 c3        1 MOL     -0.066954
      9 C4         -2.2800    2.7160    2.6900 c         1 MOL      0.464358
     10 O2         -3.1550    3.2490    3.4350 o         1 MOL     -0.535541
     11 C5         -3.1260    0.3760    2.8580 c3        1 MOL     -0.118613
     12 C6         -3.8900    0.2720    1.5120 c         1 MOL      0.853663
     13 O3         -5.0670   -0.0790    1.5840 o         1 MOL     -0.772927
     14 O4         -3.3300    0.6490    0.4310 o         1 MOL     -0.772927
     15 H4         -1.6130    0.4920    4.8730 hn        1 MOL      0.274228
     16 H5         -1.2840    0.8560    2.1190 h1        1 MOL      0.086105
     17 H6         -3.6780    0.7660    3.7120 hc        1 MOL      0.016256
     18 H7         -2.7990   -0.6470    3.0640 hc        1 MOL      0.016256
     19 N2         -1.6670    3.3670    1.7050 n         1 MOL     -0.264714
     20 C7         -1.8500    4.7650    1.3160 c3        1 MOL     -0.025176
     21 C8         -3.0090    4.9590    0.3490 c         1 MOL      0.505455
     22 O5         -3.9420    5.7090    0.6830 o         1 MOL     -0.576313
     23 C9         -0.4850    5.2960    0.8710 c3        1 MOL     -0.026190
     24 C10         0.3080    5.9890    1.9750 c3        1 MOL     -0.030847
     25 C11         1.4670    6.7810    1.3150 c3        1 MOL     -0.225320
     26 C12         2.2200    7.6290    2.3840 c3        1 MOL      0.152362
     27 N3          3.3320    8.4620    1.8140 n4        1 MOL     -0.365237
     28 H8         -0.9660    2.8150    1.2300 hn        1 MOL      0.231742
     29 H9         -2.1230    5.3790    2.1740 h1        1 MOL      0.074093
     30 H10        -0.7000    5.9740    0.0410 hc        1 MOL      0.035611
     31 H11         0.0730    4.4910    0.4130 hc        1 MOL      0.035611
     32 H12         0.8430    5.2880    2.6150 hc        1 MOL      0.078722
     33 H13        -0.3810    6.5990    2.5680 hc        1 MOL      0.078722
     34 H14         1.1590    7.4420    0.5100 hc        1 MOL      0.076474
     35 H15         2.1970    6.0750    0.9310 hc        1 MOL      0.076474
     36 H16         2.4420    7.0680    3.2870 hx        1 MOL      0.061054
     37 H17         1.5360    8.3990    2.7290 hx        1 MOL      0.061054
     38 H18         3.1690    9.1060    1.0480 hn        1 MOL      0.320295
     39 H19         3.7460    9.0260    2.5360 hn        1 MOL      0.320295
     40 H20         3.9900    7.8390    1.3660 hn        1 MOL      0.320295
     41 N4         -3.1220    4.1670   -0.7360 n         1 MOL     -0.390967
     42 C13        -4.1770    4.2530   -1.7350 c3        1 MOL     -0.046169
     43 C14        -5.4600    3.4520   -1.4370 c         1 MOL      0.548184
     44 O6         -6.3230    3.3690   -2.2790 o         1 MOL     -0.556850
     45 C15        -3.5180    4.0770   -3.0490 c3        1 MOL     -0.088244
     46 C16        -2.6260    2.9170   -3.4020 c         1 MOL      0.800533
     47 O7         -2.5180    2.0280   -2.5410 o         1 MOL     -0.732563
     48 O8         -1.8670    2.9950   -4.3640 o         1 MOL     -0.732563
     49 H21        -2.3160    3.6040   -0.9400 hn        1 MOL      0.244525
     50 H22        -4.5980    5.2490   -1.8430 h1        1 MOL      0.105953
     51 H23        -2.9050    4.9610   -3.2030 hc        1 MOL      0.011643
     52 H24        -4.2890    4.2110   -3.8030 hc        1 MOL      0.011643
     53 N5         -5.6250    2.9040   -0.2910 n         1 MOL     -0.338302
     54 C17        -6.9190    2.4050    0.2410 c3        1 MOL     -0.184433
     55 C18        -7.5840    1.2810   -0.5260 c         1 MOL      0.472536
     56 O9         -8.7720    1.0230   -0.3780 o         1 MOL     -0.558527
     57 H25        -4.9620    3.1480    0.4390 hn        1 MOL      0.328011
     58 H26        -7.5670    3.2540    0.4370 h1        1 MOL      0.126486
     59 H27        -6.6310    1.9020    1.1730 h1        1 MOL      0.126486
     60 N6         -6.8250    0.5960   -1.3780 n         1 MOL     -0.138603
     61 C19        -7.1910   -0.6600   -2.0480 c3        1 MOL     -0.026946
     62 C20        -7.3260   -1.8930   -1.0770 c         1 MOL      0.417775
     63 O10        -8.0740   -2.8000   -1.4300 o         1 MOL     -0.537319
     64 C21        -6.1450   -1.0950   -3.0530 c3        1 MOL     -0.310619
     65 C22        -4.7340   -1.0710   -2.4950 c         1 MOL      0.805105
     66 O11        -4.3680   -1.5460   -1.4050 o         1 MOL     -0.741947
     67 O12        -3.9020   -0.4480   -3.2020 o         1 MOL     -0.741947
     68 H28        -5.8650    0.9050   -1.4420 hn        1 MOL      0.156706
     69 H29        -8.1760   -0.5460   -2.4880 h1        1 MOL      0.102546
     70 H30        -6.1320   -0.3070   -3.8040 hc        1 MOL      0.099914
     71 H31        -6.3720   -2.0780   -3.4750 hc        1 MOL      0.099914
     72 N7         -6.7010   -1.9340    0.0860 n         1 MOL     -0.148245
     73 C23        -6.7610   -3.0430    1.0060 c3        1 MOL     -0.220333
     74 C24        -5.6700   -4.0800    0.8690 c         1 MOL      0.575190
     75 O13        -5.8960   -5.2410    1.2250 o         1 MOL     -0.566359
     76 H32        -5.9840   -1.2340    0.2070 hn        1 MOL      0.292189
     77 H33        -7.7430   -3.4980    0.8530 h1        1 MOL      0.099903
     78 H34        -6.5910   -2.7090    2.0280 h1        1 MOL      0.099903
     79 N8         -4.5390   -3.6690    0.2820 n         1 MOL     -0.182028
     80 C25        -3.2740   -4.4390    0.1520 c3        1 MOL     -0.416626
     81 C26        -2.0320   -3.5750    0.4700 c         1 MOL      0.774672
     82 O14        -1.9080   -2.4320   -0.0050 o         1 MOL     -0.682965
     83 C27        -3.0980   -5.0700   -1.1910 c3        1 MOL      0.536424
     84 C28        -3.8510   -6.3890   -1.3550 c3        1 MOL     -0.519229
     85 O15        -3.5760   -4.2290   -2.1900 oh        1 MOL     -0.619662
     86 H35        -4.4940   -2.6670    0.1200 hn        1 MOL      0.230647
     87 H36        -3.3280   -5.2460    0.8820 h1        1 MOL      0.111333
     88 H37        -2.0310   -5.2350   -1.3160 h1        1 MOL     -0.005602
     89 H38        -4.1810   -3.5600   -1.8680 ho        1 MOL      0.381962
     90 H39        -3.5920   -7.0900   -0.5610 hc        1 MOL      0.128325
     91 H40        -4.9130   -6.1870   -1.2600 hc        1 MOL      0.128325
     92 H41        -3.4510   -6.9050   -2.2290 hc        1 MOL      0.128325
     93 N9         -1.1220   -4.1370    1.2840 n         1 MOL     -0.597457
     94 C29         0.1690   -3.4870    1.6490 c3        1 MOL      0.012148
     95 C30         1.3450   -4.1000    0.7860 c         1 MOL      0.411115
     96 O16         1.5630   -5.3180    0.8370 o         1 MOL     -0.521972
     97 C31         0.4610   -3.6680    3.1580 c3        1 MOL      0.063491
     98 C32        -0.6370   -3.0660    4.0600 c3        1 MOL      0.265651
     99 C33         1.8000   -2.9330    3.5070 c3        1 MOL     -0.278690
    100 C34        -0.4030   -3.5000    5.5180 c3        1 MOL     -0.272174
    101 H42        -1.2820   -5.0590    1.6770 hn        1 MOL      0.343021
    102 H43         0.1320   -2.4090    1.4670 h1        1 MOL      0.128795
    103 H44         0.5050   -4.7440    3.2650 hc        1 MOL      0.014838
    104 H45        -1.6000   -3.4900    3.7570 hc        1 MOL     -0.065674
    105 H46        -0.5810   -1.9760    3.9980 hc        1 MOL     -0.065674
    106 H47         2.6100   -3.2250    2.8380 hc        1 MOL      0.050853
    107 H48         1.6730   -1.8600    3.3510 hc        1 MOL      0.050853
    108 H49         2.0610   -3.0600    4.5490 hc        1 MOL      0.050853
    109 H50         0.5260   -3.1610    5.9580 hc        1 MOL      0.060784
    110 H51        -1.2240   -3.1380    6.1340 hc        1 MOL      0.060784
    111 H52        -0.4370   -4.5890    5.4580 hc        1 MOL      0.060784
    112 N10         2.0110   -3.2080    0.0090 n         1 MOL     -0.167478
    113 C35         3.2140   -3.4510   -0.8550 c3        1 MOL      0.016513
    114 C36         4.5340   -3.1060   -0.2580 c         1 MOL      0.245181
    115 O17         4.5640   -2.5350    0.8200 o         1 MOL     -0.269487
    116 C37         2.9890   -2.5930   -2.1150 c3        1 MOL      0.210881
    117 C38         1.6980   -2.9000   -2.9060 c3        1 MOL     -0.430290
    118 O18         2.9080   -1.2590   -1.8070 oh        1 MOL     -0.528735
    119 H53         1.8030   -2.2330    0.1820 hn        1 MOL      0.309115
    120 H54         3.2730   -4.4980   -1.1480 h1        1 MOL      0.059288
    121 H55         3.8360   -2.7260   -2.7890 h1        1 MOL      0.001285
    122 H56         2.0230   -0.9310   -1.6360 ho        1 MOL      0.333737
    123 H57         1.6940   -3.9320   -3.2630 hc        1 MOL      0.110333
    124 H58         0.8430   -2.8080   -2.2340 hc        1 MOL      0.110333
    125 H59         1.5290   -2.2160   -3.7390 hc        1 MOL      0.110333
    126 N11         5.6600   -3.4670   -0.8390 n         1 MOL     -0.176046
    127 C39         7.0360   -3.3490   -0.2600 c3        1 MOL     -0.362162
    128 C40         7.3830   -1.8700   -0.0230 c         1 MOL      0.444173
    129 O19         8.1440   -1.6110    0.9100 o         1 MOL     -0.498969
    130 C41         8.1500   -4.0200   -1.1420 c3        1 MOL      0.486271
    131 C42         8.1190   -5.4940   -1.0020 c3        1 MOL     -0.260385
    132 O20         8.0930   -3.5980   -2.5080 oh        1 MOL     -0.648542
    133 H60         5.5180   -4.0540   -1.6430 hn        1 MOL      0.266137
    134 H61         7.0010   -3.8800    0.6910 h1        1 MOL      0.180505
    135 H62         9.1510   -3.7500   -0.8140 h1        1 MOL      0.003808
    136 H63         9.0050   -3.4580   -2.7640 ho        1 MOL      0.394258
    137 H64         7.0790   -5.7720   -1.1410 hc        1 MOL      0.066499
    138 H65         8.6300   -6.0070   -1.8150 hc        1 MOL      0.066499
    139 H66         8.5440   -5.8310   -0.0520 hc        1 MOL      0.066499
    140 N12         6.8960   -0.9820   -0.8660 n         1 MOL     -0.230019
    141 C43         7.3160    0.4180   -0.8260 c3        1 MOL     -0.218699
    142 C44         6.4430    1.2010    0.1530 c         1 MOL      0.545657
    143 O21         6.7660    2.2400    0.6780 o         1 MOL     -0.551473
    144 C45         7.2000    0.9290   -2.2900 c3        1 MOL      0.071251
    145 C46         7.8380    2.3300   -2.4930 c3        1 MOL     -0.089709
    146 C47         7.4600    2.9060   -3.8720 c3        1 MOL      0.226528
    147 C48         8.2710    4.2270   -4.0500 c3        1 MOL     -0.030418
    148 N13         7.6450    5.0450   -5.1220 n4        1 MOL     -0.281737
    149 H67         6.3400   -1.2750   -1.6540 hn        1 MOL      0.201599
    150 H68         8.3450    0.4940   -0.4840 h1        1 MOL      0.143796
    151 H69         6.1570    1.0640   -2.5950 hc        1 MOL      0.016657
    152 H70         7.6730    0.2530   -3.0030 hc        1 MOL      0.016657
    153 H71         8.9280    2.2930   -2.5060 hc        1 MOL      0.013515
    154 H72         7.3520    2.9340   -1.7300 hc        1 MOL      0.013515
    155 H73         6.3810    3.0990   -3.8250 hc        1 MOL     -0.030449
    156 H74         7.5320    2.1730   -4.6710 hc        1 MOL     -0.030449
    157 H75         9.2910    3.9780   -4.3680 hx        1 MOL      0.088638
    158 H76         8.2930    4.8280   -3.1350 hx        1 MOL      0.088638
    159 H77         8.1410    5.9150   -5.2320 hn        1 MOL      0.268921
    160 H78         7.6120    4.5600   -6.0010 hn        1 MOL      0.268921
    161 H79         6.7260    5.3680   -4.8370 hn        1 MOL      0.268921
    162 N14         5.2240    0.7010    0.3490 n         1 MOL     -0.109315
    163 C49         4.2130    1.1220    1.3530 c3        1 MOL     -0.263324
    164 C50         4.6850    0.6230    2.6710 c         1 MOL      0.461348
    165 O22         4.8140    1.4620    3.5890 o         1 MOL     -0.549954
    166 C51         2.8430    0.6090    1.0570 c3        1 MOL      0.316392
    167 C52         2.1330    1.2820   -0.1200 c3        1 MOL     -0.287299
    168 C53         0.7410    0.6700   -0.3780 c         1 MOL      0.739965
    169 O23        -0.3120    1.3230   -0.2180 o         1 MOL     -0.709280
    170 O24         0.5980   -0.5350   -0.5640 o         1 MOL     -0.709280
    171 H80         4.9420   -0.0990   -0.1950 hn        1 MOL      0.156324
    172 H81         4.0330    2.1920    1.3900 h1        1 MOL      0.138240
    173 H82         2.0950    0.7750    1.8310 hc        1 MOL     -0.048825
    174 H83         2.8370   -0.4480    0.7820 hc        1 MOL     -0.048825
    175 H84         2.7710    1.1860   -1.0010 hc        1 MOL      0.025334
    176 H85         2.1020    2.3310    0.1860 hc        1 MOL      0.025334
    177 N15         4.9620   -0.6600    2.9490 n         1 MOL     -0.030089
    178 C54         5.5540   -1.1430    4.1380 c3        1 MOL     -0.443546
    179 H86         4.9380   -0.8580    4.9920 h1        1 MOL      0.150012
    180 H87         5.6300   -2.2290    4.0920 h1        1 MOL      0.150012
    181 H88         6.5490   -0.7130    4.2500 h1        1 MOL      0.150012
    182 H89         4.7970   -1.3100    2.1870 hn        1 MOL      0.076338
    183 Ca1        -2.0120   -0.2020   -1.4840 Ca        1 MOL      1.762667
    184 O25        -1.4860   -2.0260   -3.5370 oh        1 MOL     -0.777677
    185 H90        -0.9220   -1.8660   -4.2860 ho        1 MOL      0.376582
    186 H91        -2.0780   -2.7290   -3.8320 ho        1 MOL      0.376582
    187 O26        -0.3210    0.5150   -3.5380 oh        1 MOL     -0.777677
    188 H92        -0.4350    1.4180   -3.8300 ho        1 MOL      0.376582
    189 H93        -0.0020    0.0550   -4.3190 ho        1 MOL      0.376582
@<TRIPOS>BOND
     1    1    2 1   
     2    1    4 1   
     3    1    5 1   
     4    1    6 1   
     5    2    3 2   
     6    2    7 1   
     7    7    8 1   
     8    7   15 1   
     9    8    9 1   
    10    8   11 1   
    11    8   16 1   
    12    9   10 2   
    13    9   19 1   
    14   11   12 1   
    15   11   17 1   
    16   11   18 1   
    17   12   13 1   
    18   12   14 1   
    19   19   20 1   
    20   19   28 1   
    21   20   21 1   
    22   20   23 1   
    23   20   29 1   
    24   21   22 2   
    25   21   41 1   
    26   23   24 1   
    27   23   30 1   
    28   23   31 1   
    29   24   25 1   
    30   24   32 1   
    31   24   33 1   
    32   25   26 1   
    33   25   34 1   
    34   25   35 1   
    35   26   27 1   
    36   26   36 1   
    37   26   37 1   
    38   27   38 1   
    39   27   39 1   
    40   27   40 1   
    41   41   42 1   
    42   41   49 1   
    43   42   43 1   
    44   42   45 1   
    45   42   50 1   
    46   43   44 2   
    47   43   53 1   
    48   45   46 1   
    49   45   51 1   
    50   45   52 1   
    51   46   47 1   
    52   46   48 1   
    53   53   54 1   
    54   53   57 1   
    55   54   55 1   
    56   54   58 1   
    57   54   59 1   
    58   55   56 2   
    59   55   60 1   
    60   60   61 1   
    61   60   68 1   
    62   61   62 1   
    63   61   64 1   
    64   61   69 1   
    65   62   63 2   
    66   62   72 1   
    67   64   65 1   
    68   64   70 1   
    69   64   71 1   
    70   65   66 1   
    71   65   67 1   
    72   72   73 1   
    73   72   76 1   
    74   73   74 1   
    75   73   77 1   
    76   73   78 1   
    77   74   75 2   
    78   74   79 1   
    79   79   80 1   
    80   79   86 1   
    81   80   81 1   
    82   80   83 1   
    83   80   87 1   
    84   81   82 2   
    85   81   93 1   
    86   83   84 1   
    87   83   85 1   
    88   83   88 1   
    89   84   90 1   
    90   84   91 1   
    91   84   92 1   
    92   85   89 1   
    93   93   94 1   
    94   93  101 1   
    95   94   95 1   
    96   94   97 1   
    97   94  102 1   
    98   95   96 2   
    99   95  112 1   
   100   97   98 1   
   101   97   99 1   
   102   97  103 1   
   103   98  100 1   
   104   98  104 1   
   105   98  105 1   
   106   99  106 1   
   107   99  107 1   
   108   99  108 1   
   109  100  109 1   
   110  100  110 1   
   111  100  111 1   
   112  112  113 1   
   113  112  119 1   
   114  113  114 1   
   115  113  116 1   
   116  113  120 1   
   117  114  115 2   
   118  114  126 1   
   119  116  117 1   
   120  116  118 1   
   121  116  121 1   
   122  117  123 1   
   123  117  124 1   
   124  117  125 1   
   125  118  122 1   
   126  126  127 1   
   127  126  133 1   
   128  127  128 1   
   129  127  130 1   
   130  127  134 1   
   131  128  129 2   
   132  128  140 1   
   133  130  131 1   
   134  130  132 1   
   135  130  135 1   
   136  131  137 1   
   137  131  138 1   
   138  131  139 1   
   139  132  136 1   
   140  140  141 1   
   141  140  149 1   
   142  141  142 1   
   143  141  144 1   
   144  141  150 1   
   145  142  143 2   
   146  142  162 1   
   147  144  145 1   
   148  144  151 1   
   149  144  152 1   
   150  145  146 1   
   151  145  153 1   
   152  145  154 1   
   153  146  147 1   
   154  146  155 1   
   155  146  156 1   
   156  147  148 1   
   157  147  157 1   
   158  147  158 1   
   159  148  159 1   
   160  148  160 1   
   161  148  161 1   
   162  162  163 1   
   163  162  171 1   
   164  163  164 1   
   165  163  166 1   
   166  163  172 1   
   167  164  165 2   
   168  164  177 1   
   169  166  167 1   
   170  166  173 1   
   171  166  174 1   
   172  167  168 1   
   173  167  175 1   
   174  167  176 1   
   175  168  169 1   
   176  168  170 1   
   177  177  178 1   
   178  177  182 1   
   179  178  179 1   
   180  178  180 1   
   181  178  181 1   
   182  184  185 1   
   183  184  186 1   
   184  187  188 1   
   185  187  189 1   
@<TRIPOS>SUBSTRUCTURE
     1 MOL         1 TEMP              0 ****  ****    0 ROOT
