@<TRIPOS>MOLECULE
MOL
  175   173     1     0     0
SMALL
resp


@<TRIPOS>ATOM
      1 C1         -0.0230    4.1340    5.6680 c3        1 MOL     -0.385109
      2 C2         -0.4540    4.4250    4.2380 c         1 MOL      0.770104
      3 O1          0.3470    4.7500    3.3600 o         1 MOL     -0.584479
      4 H1          1.0440    4.3300    5.7720 hc        1 MOL      0.089045
      5 H2         -0.5780    4.7760    6.3520 hc        1 MOL      0.089045
      6 H3         -0.2250    3.0880    5.9030 hc        1 MOL      0.089045
      7 N1         -1.7550    4.2340    4.0120 n         1 MOL     -0.739373
      8 C3         -2.2870    3.8860    2.6880 c3        1 MOL      0.408888
      9 C4         -2.6180    5.0240    1.6560 c         1 MOL      0.560573
     10 O2         -3.2580    6.0820    1.9610 o         1 MOL     -0.617465
     11 C5         -3.6010    2.9780    2.9030 c3        1 MOL     -0.642683
     12 C6         -4.0490    2.2240    1.5990 c         1 MOL      0.989862
     13 O3         -5.1260    1.5110    1.6540 o         1 MOL     -0.718851
     14 O4         -3.3740    2.2700    0.5710 o         1 MOL     -0.718851
     15 H4         -2.2930    3.9860    4.8310 hn        1 MOL      0.347294
     16 H5         -1.5660    3.2420    2.1770 h1        1 MOL      0.025176
     17 H6         -4.3650    3.6450    3.2870 hc        1 MOL      0.133584
     18 H7         -3.2660    2.1690    3.5560 hc        1 MOL      0.133584
     19 N2         -2.2560    4.8420    0.4520 n         1 MOL     -0.605227
     20 C7         -2.4910    5.7360   -0.7030 c3        1 MOL      0.461634
     21 C8         -3.3670    5.1980   -1.8900 c         1 MOL      0.303086
     22 O5         -3.5290    5.9950   -2.7860 o         1 MOL     -0.538744
     23 C9         -1.1250    6.1540   -1.2090 c3        1 MOL     -0.211627
     24 H8         -1.8550    3.9430    0.2260 hn        1 MOL      0.291595
     25 H9         -3.0110    6.6470   -0.3830 h1        1 MOL     -0.002950
     26 H10        -0.4230    5.3330   -1.2880 hc        1 MOL      0.042813
     27 H11        -1.1910    6.6140   -2.2010 hc        1 MOL      0.042813
     28 H12        -0.7660    6.9280   -0.5260 hc        1 MOL      0.042813
     29 N3         -3.8500    3.9430   -1.8740 n         1 MOL     -0.238376
     30 C10        -4.6680    3.3930   -2.9960 c3        1 MOL      0.124650
     31 C11        -5.9900    2.7250   -2.5290 c         1 MOL      0.257088
     32 O6         -6.9310    2.5200   -3.3010 o         1 MOL     -0.521134
     33 C12        -3.8510    2.2430   -3.6590 c3        1 MOL     -0.128273
     34 C13        -3.0580    1.3500   -2.6950 c         1 MOL      0.642441
     35 O7         -3.7030    0.6710   -1.8290 o         1 MOL     -0.685197
     36 O8         -1.8390    1.2940   -2.6760 o         1 MOL     -0.685197
     37 H13        -3.6890    3.3790   -1.0510 hn        1 MOL      0.243856
     38 H14        -4.8980    4.1690   -3.7270 h1        1 MOL      0.073695
     39 H15        -3.1930    2.6770   -4.4150 hc        1 MOL      0.028597
     40 H16        -4.4480    1.5520   -4.2620 hc        1 MOL      0.028597
     41 N4         -6.0340    2.2630   -1.2700 n         1 MOL     -0.042424
     42 C14        -7.1180    1.4980   -0.7830 c3        1 MOL     -0.238757
     43 C15        -7.2860    0.0020   -1.1220 c         1 MOL      0.554888
     44 O9         -8.3970   -0.4440   -1.0660 o         1 MOL     -0.604903
     45 H17        -5.2360    2.4130   -0.6700 hn        1 MOL      0.016054
     46 H18        -7.9890    2.0580   -1.1360 h1        1 MOL      0.104747
     47 H19        -7.0560    1.5310    0.3010 h1        1 MOL      0.104747
     48 N5         -6.1850   -0.6870   -1.4310 n         1 MOL     -0.185534
     49 C16        -6.1300   -2.0130   -2.0710 c3        1 MOL     -0.097442
     50 C17        -6.1940   -3.2040   -1.0900 c         1 MOL      0.429781
     51 O10        -6.3060   -4.3840   -1.4720 o         1 MOL     -0.545956
     52 C18        -4.9530   -2.2220   -3.0650 c3        1 MOL     -0.087490
     53 C19        -3.6000   -2.2290   -2.4500 c         1 MOL      0.429943
     54 N6         -2.6290   -2.2370   -3.2720 n         1 MOL     -0.556413
     55 O11        -3.3790   -2.0690   -1.2900 o         1 MOL     -0.274654
     56 H20        -5.2940   -0.2170   -1.5390 hn        1 MOL      0.228989
     57 H21        -7.0270   -2.0550   -2.6870 h1        1 MOL      0.103195
     58 H22        -5.0250   -1.4880   -3.8590 hc        1 MOL      0.040410
     59 H23        -5.1450   -3.2030   -3.5030 hc        1 MOL      0.040410
     60 H24        -2.8240   -2.4870   -4.2290 hn        1 MOL      0.292294
     61 H25        -1.6830   -2.1100   -2.9260 hn        1 MOL      0.292294
     62 N7         -6.1450   -2.9300    0.2050 n         1 MOL     -0.237095
     63 C20        -6.3000   -3.9620    1.2140 c3        1 MOL     -0.212525
     64 C21        -4.9130   -4.5520    1.5870 c         1 MOL      0.512699
     65 O12        -4.8160   -5.5700    2.2000 o         1 MOL     -0.585460
     66 H26        -5.9230   -1.9960    0.4930 hn        1 MOL      0.228866
     67 H27        -6.9180   -4.7830    0.8570 h1        1 MOL      0.123312
     68 H28        -6.7500   -3.5130    2.1000 h1        1 MOL      0.123312
     69 N8         -3.7400   -4.0300    1.1530 n         1 MOL     -0.141205
     70 C22        -2.4200   -4.7130    1.2880 c3        1 MOL     -0.124097
     71 C23        -1.3530   -3.6230    1.5840 c         1 MOL      0.371975
     72 O13        -1.4740   -2.5480    1.0720 o         1 MOL     -0.397775
     73 C24        -1.9860   -5.4540    0.0030 c3        1 MOL      0.484406
     74 C25        -2.7880   -6.7080   -0.2510 c3        1 MOL     -0.528275
     75 O14        -2.0940   -4.6760   -1.2230 oh        1 MOL     -0.574973
     76 H29        -3.7180   -3.1220    0.7110 hn        1 MOL     -0.002614
     77 H30        -2.5110   -5.4060    2.1140 h1        1 MOL      0.089431
     78 H31        -0.9490   -5.7330    0.1920 h1        1 MOL     -0.035126
     79 H32        -1.4610   -3.9510   -1.1840 ho        1 MOL      0.327777
     80 H33        -2.5260   -7.2680   -1.1550 hc        1 MOL      0.139135
     81 H34        -2.7520   -7.3460    0.6330 hc        1 MOL      0.139135
     82 H35        -3.8410   -6.4270   -0.2520 hc        1 MOL      0.139135
     83 N9         -0.2350   -4.0100    2.1960 n         1 MOL     -0.386724
     84 C26         0.9230   -3.1550    2.1630 c3        1 MOL      0.075976
     85 C27         1.6700   -3.4270    0.8170 c         1 MOL      0.412100
     86 O15         1.9890   -4.5690    0.4590 o         1 MOL     -0.558097
     87 C28         1.8090   -3.2910    3.4180 c3        1 MOL      0.146868
     88 C29         1.2160   -2.3320    4.4920 c3        1 MOL     -0.029064
     89 C30         3.3060   -2.9730    3.0740 c3        1 MOL     -0.314949
     90 C31         1.5820   -2.8770    5.9410 c3        1 MOL     -0.196783
     91 H36        -0.2370   -4.9880    2.4620 hn        1 MOL      0.251028
     92 H37         0.5720   -2.1250    2.1930 h1        1 MOL     -0.062393
     93 H38         1.8340   -4.3050    3.7980 hc        1 MOL      0.013364
     94 H39         0.1280   -2.3860    4.4970 hc        1 MOL      0.044770
     95 H40         1.6910   -1.3610    4.4210 hc        1 MOL      0.044770
     96 H41         3.3110   -2.0090    2.5540 hc        1 MOL      0.076261
     97 H42         3.9290   -2.7950    3.9420 hc        1 MOL      0.076261
     98 H43         3.7650   -3.8170    2.5580 hc        1 MOL      0.076261
     99 H44         1.2480   -3.9180    5.9530 hc        1 MOL      0.039300
    100 H45         2.6690   -2.8620    6.0090 hc        1 MOL      0.039300
    101 H46         1.1370   -2.2080    6.6680 hc        1 MOL      0.039300
    102 N10         1.8660   -2.3310    0.0620 n         1 MOL     -0.038953
    103 C32         2.6860   -2.2000   -1.1390 c3        1 MOL      0.012029
    104 C33         4.0930   -1.6380   -0.8520 c         1 MOL      0.459902
    105 O16         4.3130   -1.1770    0.2640 o         1 MOL     -0.385843
    106 C34         1.9950   -1.2170   -2.0650 c3        1 MOL     -0.339388
    107 C35         0.5790   -1.5460   -2.3310 c         1 MOL      0.754981
    108 O17        -0.3560   -1.1400   -1.5590 o         1 MOL     -0.682182
    109 O18         0.2440   -2.2740   -3.3140 o         1 MOL     -0.682182
    110 H47         1.3590   -1.5120    0.3460 hn        1 MOL      0.073907
    111 H48         2.8210   -3.2160   -1.4830 h1        1 MOL      0.072013
    112 H49         2.5820   -1.2480   -2.9830 hc        1 MOL      0.074594
    113 H50         2.0660   -0.2020   -1.6620 hc        1 MOL      0.074594
    114 N11         5.0020   -1.7780   -1.8000 n         1 MOL     -0.634124
    115 C36         6.4120   -1.3750   -1.5650 c3        1 MOL      0.319068
    116 C37         6.6780    0.0660   -1.0810 c         1 MOL      0.303790
    117 O19         7.4070    0.2500   -0.0630 o         1 MOL     -0.461711
    118 C38         7.2600   -1.9400   -2.6750 c3        1 MOL     -0.263052
    119 C39         8.6740   -1.3750   -2.4910 ca        1 MOL      0.208336
    120 C40         9.4220   -1.6060   -1.2940 ca        1 MOL     -0.272775
    121 C41         9.4080   -0.8200   -3.6140 ca        1 MOL     -0.272775
    122 C42        10.6760   -0.9450   -1.0950 ca        1 MOL      0.027810
    123 C43        10.6760   -0.3950   -3.4680 ca        1 MOL      0.027810
    124 C44        11.3200   -0.4430   -2.2370 ca        1 MOL     -0.252308
    125 H51         4.7990   -2.1070   -2.7360 hn        1 MOL      0.369914
    126 H52         6.6920   -1.8620   -0.6350 h1        1 MOL      0.084887
    127 H53         6.7610   -1.6870   -3.6120 hc        1 MOL      0.078756
    128 H54         7.2370   -3.0340   -2.6460 hc        1 MOL      0.078756
    129 H55         8.9720   -2.2390   -0.5430 ha        1 MOL      0.124259
    130 H56         8.9640   -0.8070   -4.5980 ha        1 MOL      0.124259
    131 H57        11.2610   -1.0100   -0.1960 ha        1 MOL      0.083354
    132 H58        11.2260    0.0230   -4.2940 ha        1 MOL      0.083354
    133 H59        12.3700   -0.2100   -2.0970 ha        1 MOL      0.124400
    134 N12         6.1790    1.1590   -1.7300 n         1 MOL     -0.135846
    135 C45         6.4270    2.4900   -1.1710 c3        1 MOL      0.027290
    136 C46         5.7150    2.7230    0.2040 c         1 MOL      0.252510
    137 O20         6.1910    3.6000    0.9380 o         1 MOL     -0.514231
    138 C47         5.7680    3.4660   -2.1520 c3        1 MOL     -0.208306
    139 C48         4.7000    2.6360   -2.8870 c3        1 MOL      0.082713
    140 C49         5.2630    1.2460   -2.8820 c3        1 MOL     -0.003934
    141 H60         7.5080    2.6260   -1.1530 h1        1 MOL      0.088890
    142 H61         5.2810    4.2670   -1.6040 hc        1 MOL      0.079947
    143 H62         6.4550    3.8190   -2.9220 hc        1 MOL      0.079947
    144 H63         3.7690    2.6990   -2.3320 hc        1 MOL      0.009577
    145 H64         4.5780    2.9830   -3.9160 hc        1 MOL      0.009577
    146 H65         4.5110    0.4520   -2.8910 h1        1 MOL      0.018215
    147 H66         5.8820    1.1210   -3.7650 h1        1 MOL      0.018215
    148 N13         4.7380    1.9830    0.5050 n         1 MOL      0.025359
    149 C50         4.1070    1.9610    1.8160 c3        1 MOL     -0.273475
    150 C51         4.9200    1.1610    2.8970 c         1 MOL      0.520374
    151 O21         4.9110    1.5620    4.0530 o         1 MOL     -0.561370
    152 C52         2.7420    1.2940    1.7260 c3        1 MOL      0.001939
    153 C53         1.8730    1.9470    0.7440 c3        1 MOL      0.010251
    154 C54         0.4260    1.3780    0.7890 c         1 MOL      0.528891
    155 O22         0.1810    0.1530    1.0470 o         1 MOL     -0.639668
    156 O23        -0.5050    2.0570    0.3780 o         1 MOL     -0.639668
    157 H67         4.4190    1.3310   -0.2000 hn        1 MOL      0.232022
    158 H68         3.9700    3.0070    2.0850 h1        1 MOL      0.147430
    159 H69         2.2130    1.2880    2.6820 hc        1 MOL      0.036983
    160 H70         2.8940    0.3030    1.3040 hc        1 MOL      0.036983
    161 H71         2.2770    1.8650   -0.2690 hc        1 MOL      0.022495
    162 H72         1.8890    3.0340    0.8380 hc        1 MOL      0.022495
    163 N14         5.5960    0.0780    2.5200 n         1 MOL     -0.083853
    164 C55         6.5960   -0.6980    3.3250 c3        1 MOL     -0.246135
    165 H73         7.5940   -0.2990    3.1460 h1        1 MOL      0.096226
    166 H74         6.3560   -0.6110    4.3850 h1        1 MOL      0.096226
    167 H75         6.5670   -1.7470    3.0300 h1        1 MOL      0.096226
    168 H76         5.3670   -0.2780    1.5990 hn        1 MOL      0.055614
    169 Ca1        -2.0650   -0.1310   -0.0450 Ca        1 MOL      1.696577
    170 O24        -4.3230   -0.8930    1.3080 oh        1 MOL     -0.748451
    171 H77        -4.7060   -0.0390    1.5210 ho        1 MOL      0.351708
    172 H78        -4.2150   -1.3200    2.1620 ho        1 MOL      0.351708
    173 O25        -2.0990    0.0530    2.6520 oh        1 MOL     -0.748451
    174 H79        -1.1410    0.0010    2.5860 ho        1 MOL      0.351708
    175 H80        -2.2570    0.5430    3.4580 ho        1 MOL      0.351708
@<TRIPOS>BOND
     1    1    2 1   
     2    1    4 1   
     3    1    5 1   
     4    1    6 1   
     5    2    3 2   
     6    2    7 1   
     7    7    8 1   
     8    7   15 1   
     9    8    9 1   
    10    8   11 1   
    11    8   16 1   
    12    9   10 2   
    13    9   19 1   
    14   11   12 1   
    15   11   17 1   
    16   11   18 1   
    17   12   13 1   
    18   12   14 1   
    19   19   20 1   
    20   19   24 1   
    21   20   21 1   
    22   20   23 1   
    23   20   25 1   
    24   21   22 2   
    25   21   29 1   
    26   23   26 1   
    27   23   27 1   
    28   23   28 1   
    29   29   30 1   
    30   29   37 1   
    31   30   31 1   
    32   30   33 1   
    33   30   38 1   
    34   31   32 2   
    35   31   41 1   
    36   33   34 1   
    37   33   39 1   
    38   33   40 1   
    39   34   35 1   
    40   34   36 1   
    41   41   42 1   
    42   41   45 1   
    43   42   43 1   
    44   42   46 1   
    45   42   47 1   
    46   43   44 2   
    47   43   48 1   
    48   48   49 1   
    49   48   56 1   
    50   49   50 1   
    51   49   52 1   
    52   49   57 1   
    53   50   51 2   
    54   50   62 1   
    55   52   53 1   
    56   52   58 1   
    57   52   59 1   
    58   53   54 1   
    59   53   55 2   
    60   54   60 1   
    61   54   61 1   
    62   62   63 1   
    63   62   66 1   
    64   63   64 1   
    65   63   67 1   
    66   63   68 1   
    67   64   65 2   
    68   64   69 1   
    69   69   70 1   
    70   69   76 1   
    71   70   71 1   
    72   70   73 1   
    73   70   77 1   
    74   71   72 2   
    75   71   83 1   
    76   73   74 1   
    77   73   75 1   
    78   73   78 1   
    79   74   80 1   
    80   74   81 1   
    81   74   82 1   
    82   75   79 1   
    83   83   84 1   
    84   83   91 1   
    85   84   85 1   
    86   84   87 1   
    87   84   92 1   
    88   85   86 2   
    89   85  102 1   
    90   87   88 1   
    91   87   89 1   
    92   87   93 1   
    93   88   90 1   
    94   88   94 1   
    95   88   95 1   
    96   89   96 1   
    97   89   97 1   
    98   89   98 1   
    99   90   99 1   
   100   90  100 1   
   101   90  101 1   
   102  102  103 1   
   103  102  110 1   
   104  103  104 1   
   105  103  106 1   
   106  103  111 1   
   107  104  105 2   
   108  104  114 1   
   109  106  107 1   
   110  106  112 1   
   111  106  113 1   
   112  107  108 1   
   113  107  109 1   
   114  114  115 1   
   115  114  125 1   
   116  115  116 1   
   117  115  118 1   
   118  115  126 1   
   119  116  117 2   
   120  116  134 1   
   121  118  119 1   
   122  118  127 1   
   123  118  128 1   
   124  119  120 ar  
   125  119  121 ar  
   126  120  122 ar  
   127  120  129 1   
   128  121  123 ar  
   129  121  130 1   
   130  122  124 ar  
   131  122  131 1   
   132  123  124 ar  
   133  123  132 1   
   134  124  133 1   
   135  134  135 1   
   136  134  140 1   
   137  135  136 1   
   138  135  138 1   
   139  135  141 1   
   140  136  137 2   
   141  136  148 1   
   142  138  139 1   
   143  138  142 1   
   144  138  143 1   
   145  139  140 1   
   146  139  144 1   
   147  139  145 1   
   148  140  146 1   
   149  140  147 1   
   150  148  149 1   
   151  148  157 1   
   152  149  150 1   
   153  149  152 1   
   154  149  158 1   
   155  150  151 2   
   156  150  163 1   
   157  152  153 1   
   158  152  159 1   
   159  152  160 1   
   160  153  154 1   
   161  153  161 1   
   162  153  162 1   
   163  154  155 1   
   164  154  156 1   
   165  163  164 1   
   166  163  168 1   
   167  164  165 1   
   168  164  166 1   
   169  164  167 1   
   170  170  171 1   
   171  170  172 1   
   172  173  174 1   
   173  173  175 1   
@<TRIPOS>SUBSTRUCTURE
     1 MOL         1 TEMP              0 ****  ****    0 ROOT
