@<TRIPOS>MOLECULE
MOL
  176   174     1     0     0
SMALL
resp


@<TRIPOS>ATOM
      1 C1         -0.4420   -5.0060   -4.5290 c3        1 MOL     -0.642628
      2 C2         -0.7050   -4.2490   -3.2190 c         1 MOL      0.694347
      3 O1         -0.2030   -4.5400   -2.1470 o         1 MOL     -0.546846
      4 H1          0.6240   -4.9830   -4.7530 hc        1 MOL      0.162596
      5 H2         -0.7690   -6.0400   -4.4230 hc        1 MOL      0.162596
      6 H3         -0.9940   -4.5310   -5.3400 hc        1 MOL      0.162596
      7 N1         -1.6580   -3.3020   -3.3000 n         1 MOL     -0.371337
      8 C3         -2.1670   -2.6160   -2.0870 c3        1 MOL      0.008182
      9 C4         -3.1370   -3.4260   -1.2730 c         1 MOL      0.345992
     10 O2         -4.3820   -3.3070   -1.4300 o         1 MOL     -0.463050
     11 C5         -2.7840   -1.2540   -2.4100 c3        1 MOL     -0.033208
     12 C6         -3.2920   -0.4730   -1.2120 c         1 MOL      0.503783
     13 O3         -2.8970   -0.7430   -0.0530 o         1 MOL     -0.603868
     14 O4         -4.1770    0.3910   -1.4720 o         1 MOL     -0.603868
     15 H4         -2.0630   -3.0040   -4.1750 hn        1 MOL      0.267926
     16 H5         -1.3470   -2.3590   -1.4050 h1        1 MOL      0.049882
     17 H6         -3.4890   -1.2100   -3.2480 hc        1 MOL      0.034493
     18 H7         -1.9590   -0.6340   -2.7600 hc        1 MOL      0.034493
     19 N2         -2.6300   -4.3380   -0.4410 n         1 MOL     -0.268654
     20 C7         -3.5240   -5.4420    0.1160 c3        1 MOL      0.009428
     21 C8         -4.4970   -4.9470    1.2540 c         1 MOL      0.353070
     22 O5         -5.5860   -5.4650    1.2820 o         1 MOL     -0.503161
     23 C9         -2.6590   -6.5070    0.7730 c3        1 MOL     -0.071918
     24 C10        -1.7430   -7.2700   -0.2360 c3        1 MOL     -0.040981
     25 C11        -2.4620   -7.9110   -1.4360 c3        1 MOL      0.127784
     26 C12        -1.7590   -9.0510   -2.0680 c3        1 MOL      0.055207
     27 N3         -2.4900   -9.7220   -3.2050 n4        1 MOL     -0.385386
     28 H8         -1.6220   -4.4850   -0.4620 hn        1 MOL      0.313233
     29 H9         -4.0950   -5.8850   -0.6990 h1        1 MOL      0.062388
     30 H10        -3.2660   -7.1990    1.3440 hc        1 MOL      0.060522
     31 H11        -2.0790   -6.0170    1.5520 hc        1 MOL      0.060522
     32 H12        -1.3300   -8.1400    0.2690 hc        1 MOL      0.011186
     33 H13        -0.9590   -6.5600   -0.5260 hc        1 MOL      0.011186
     34 H14        -2.5460   -7.1040   -2.1660 hc        1 MOL     -0.017222
     35 H15        -3.4420   -8.2730   -1.1450 hc        1 MOL     -0.017222
     36 H16        -1.5350   -9.7580   -1.2780 hx        1 MOL      0.065863
     37 H17        -0.8330   -8.6610   -2.4980 hx        1 MOL      0.065863
     38 H18        -3.4570   -9.9200   -2.9820 hn        1 MOL      0.334662
     39 H19        -2.4450   -9.1130   -4.0050 hn        1 MOL      0.334662
     40 H20        -1.9860  -10.5800   -3.3700 hn        1 MOL      0.334662
     41 N4         -4.1200   -3.9450    2.0400 n         1 MOL     -0.163106
     42 C13        -4.9430   -3.2550    2.9850 c3        1 MOL      0.003409
     43 C14        -6.0200   -2.3380    2.2980 c         1 MOL      0.415540
     44 O6         -7.1690   -2.2480    2.7620 o         1 MOL     -0.561601
     45 C15        -4.1290   -2.3760    3.9930 c3        1 MOL     -0.218606
     46 C16        -2.9850   -1.4860    3.4560 c         1 MOL      0.647790
     47 O7         -1.9760   -2.0180    2.9980 o         1 MOL     -0.692661
     48 O8         -3.2170   -0.2630    3.2310 o         1 MOL     -0.692661
     49 H21        -3.1510   -3.6830    1.9550 hn        1 MOL      0.191529
     50 H22        -5.4880   -4.0120    3.5500 h1        1 MOL      0.081518
     51 H23        -3.7270   -3.0920    4.7010 hc        1 MOL      0.068965
     52 H24        -4.8280   -1.7570    4.5630 hc        1 MOL      0.068965
     53 N5         -5.6840   -1.8180    1.1450 n         1 MOL      0.183675
     54 C17        -6.5570   -1.1630    0.1450 c3        1 MOL     -0.413630
     55 C18        -6.7580    0.3560    0.3470 c         1 MOL      0.651711
     56 O9         -7.7990    0.8580   -0.0480 o         1 MOL     -0.568091
     57 H25        -4.7000   -1.8230    0.8860 hn        1 MOL     -0.099553
     58 H26        -7.5290   -1.6350    0.3480 h1        1 MOL      0.167554
     59 H27        -6.1840   -1.3450   -0.8640 h1        1 MOL      0.167554
     60 N6         -5.7870    1.0590    0.9600 n         1 MOL     -0.332946
     61 C19        -5.9400    2.4060    1.3760 c3        1 MOL      0.062516
     62 C20        -5.6550    3.4160    0.2190 c         1 MOL      0.261154
     63 O10        -6.1240    4.5460    0.3920 o         1 MOL     -0.511971
     64 C21        -5.0350    2.6830    2.5450 c3        1 MOL     -0.085544
     65 C22        -3.5740    2.6720    2.3870 c         1 MOL      0.632569
     66 N7         -2.9410    3.4050    3.3130 n         1 MOL     -0.727721
     67 O11        -2.9770    2.2220    1.4600 o         1 MOL     -0.538770
     68 H28        -4.9320    0.5370    1.0800 hn        1 MOL      0.093249
     69 H29        -6.9730    2.5560    1.7210 h1        1 MOL      0.105041
     70 H30        -5.1920    1.8740    3.2580 hc        1 MOL      0.051482
     71 H31        -5.4250    3.5790    3.0260 hc        1 MOL      0.051482
     72 H32        -3.4940    3.9840    3.9380 hn        1 MOL      0.336037
     73 H33        -1.9330    3.5170    3.3340 hn        1 MOL      0.336037
     74 N8         -4.9430    3.0850   -0.8460 n         1 MOL      0.081977
     75 C23        -4.7980    3.8610   -2.0580 c3        1 MOL     -0.386767
     76 C24        -3.2740    4.1820   -2.3520 c         1 MOL      0.486656
     77 O12        -2.9510    4.9890   -3.2480 o         1 MOL     -0.524155
     78 H34        -4.6250    2.1290   -0.8740 hn        1 MOL      0.168631
     79 H35        -5.2740    4.8160   -1.8560 h1        1 MOL      0.173170
     80 H36        -5.2500    3.3610   -2.9210 h1        1 MOL      0.173170
     81 N9         -2.4130    3.7680   -1.4100 n         1 MOL     -0.250100
     82 C25        -0.9790    4.0640   -1.3430 c3        1 MOL      0.112400
     83 C26        -0.0780    2.7440   -1.1150 c         1 MOL      0.460863
     84 O13        -0.5370    1.7190   -0.5550 o         1 MOL     -0.623365
     85 C27        -0.7480    5.1460   -0.3450 c3        1 MOL      0.116084
     86 C28        -1.5860    6.4230   -0.6660 ca        1 MOL     -0.007578
     87 C29        -2.9680    6.4620   -0.1980 ca        1 MOL     -0.156967
     88 C30        -1.0180    7.5500   -1.2830 ca        1 MOL     -0.156967
     89 C31        -3.7790    7.6140   -0.5450 ca        1 MOL     -0.273863
     90 C32        -1.7970    8.7130   -1.4790 ca        1 MOL     -0.273863
     91 C33        -3.1780    8.7350   -1.1510 ca        1 MOL      0.369340
     92 O14        -3.9550    9.8590   -1.4150 oh        1 MOL     -0.464168
     93 H37        -2.8390    3.2090   -0.6800 hn        1 MOL      0.193953
     94 H38        -0.7430    4.5350   -2.3000 h1        1 MOL      0.038823
     95 H39         0.2770    5.5010   -0.2190 hc        1 MOL     -0.030248
     96 H40        -1.0540    4.7870    0.6370 hc        1 MOL     -0.030248
     97 H41        -3.4530    5.6600    0.3320 ha        1 MOL      0.125098
     98 H42         0.0140    7.5770   -1.6060 ha        1 MOL      0.125098
     99 H43        -4.8090    7.6040   -0.2280 ha        1 MOL      0.153300
    100 H44        -1.3000    9.5070   -1.9950 ha        1 MOL      0.153300
    101 H45        -3.3560   10.5080   -1.7740 ho        1 MOL      0.325246
    102 N10         1.1940    2.7490   -1.5500 n         1 MOL     -0.522062
    103 C34         2.2790    1.7770   -1.3640 c3        1 MOL     -0.085617
    104 C35         3.5760    2.6050   -0.9890 c         1 MOL      0.702514
    105 O15         3.9850    3.4750   -1.7740 o         1 MOL     -0.551493
    106 C36         2.4370    0.7810   -2.5180 c3        1 MOL      0.024148
    107 C37         1.0740    0.0960   -2.7510 c3        1 MOL      0.236717
    108 C38         3.6200   -0.1470   -2.4290 c3        1 MOL     -0.169246
    109 C39         1.1030   -0.8610   -3.9750 c3        1 MOL     -0.431971
    110 H46         1.5180    3.6360   -1.9110 hn        1 MOL      0.297487
    111 H47         1.9330    1.3370   -0.4260 h1        1 MOL      0.168687
    112 H48         2.6570    1.4570   -3.3510 hc        1 MOL      0.028777
    113 H49         0.3010    0.8350   -2.9950 hc        1 MOL      0.006836
    114 H50         0.8140   -0.4480   -1.8480 hc        1 MOL      0.006836
    115 H51         3.5930   -0.8310   -3.2680 hc        1 MOL      0.029662
    116 H52         4.5580    0.3870   -2.2360 hc        1 MOL      0.029662
    117 H53         3.5690   -0.8070   -1.5690 hc        1 MOL      0.029662
    118 H54         0.1470   -1.3680   -4.1370 hc        1 MOL      0.098546
    119 H55         1.4990   -0.3240   -4.8380 hc        1 MOL      0.098546
    120 H56         1.7820   -1.6760   -3.7150 hc        1 MOL      0.098546
    121 N11         4.2550    2.3800    0.1620 n         1 MOL     -0.650728
    122 C40         5.7180    2.8500    0.2390 c3        1 MOL      0.166769
    123 C41         6.6610    1.8950   -0.4370 c         1 MOL      0.427060
    124 O16         6.3180    0.7310   -0.7880 o         1 MOL     -0.337615
    125 C42         6.0190    2.8870    1.7620 c3        1 MOL     -0.050398
    126 O17         5.9790    1.5690    2.3850 oh        1 MOL     -0.400852
    127 H57         3.9290    1.6770    0.8080 hn        1 MOL      0.353883
    128 H58         5.8810    3.8170   -0.2400 h1        1 MOL      0.081856
    129 H59         5.4320    3.6490    2.2690 h1        1 MOL      0.068239
    130 H60         6.9790    3.3860    1.9010 h1        1 MOL      0.068239
    131 H61         6.0380    1.6500    3.3460 ho        1 MOL      0.380534
    132 N12         7.9450    2.2430   -0.5720 n         1 MOL     -0.450563
    133 C43         8.9370    1.3520   -1.0480 c3        1 MOL      0.229773
    134 C44         9.1210    0.1380   -0.0180 c         1 MOL      0.376255
    135 O18         9.2230   -0.9940   -0.4910 o         1 MOL     -0.485864
    136 C45        10.2250    2.1430   -1.1480 c3        1 MOL     -0.411651
    137 H62         8.2650    3.1680   -0.3320 hn        1 MOL      0.266028
    138 H63         8.7160    0.9650   -2.0480 h1        1 MOL      0.070995
    139 H64        11.0160    1.4730   -1.4660 hc        1 MOL      0.118321
    140 H65        10.1390    2.8070   -2.0070 hc        1 MOL      0.118321
    141 H66        10.5760    2.6380   -0.2480 hc        1 MOL      0.118321
    142 N13         9.0590    0.3670    1.2930 n         1 MOL     -0.414576
    143 C46         9.0790   -0.6870    2.2850 c3        1 MOL      0.305392
    144 C47         7.8760   -1.6140    2.0870 c         1 MOL      0.222591
    145 O19         8.0430   -2.8580    2.1380 o         1 MOL     -0.499848
    146 C48         9.0820   -0.1080    3.6680 c3        1 MOL     -0.246583
    147 H67         9.0530    1.3210    1.6070 hn        1 MOL      0.269938
    148 H68         9.9940   -1.2820    2.2820 h1        1 MOL      0.056979
    149 H69        10.0730    0.3080    3.8450 hc        1 MOL      0.058708
    150 H70         8.4010    0.7400    3.6880 hc        1 MOL      0.058708
    151 H71         8.8510   -0.8790    4.4090 hc        1 MOL      0.058708
    152 N14         6.6700   -1.1290    1.7760 n         1 MOL      0.054931
    153 C49         5.5000   -2.0000    1.4410 c3        1 MOL     -0.170497
    154 C50         5.6710   -2.7640    0.1160 c         1 MOL      0.502238
    155 O20         5.2910   -3.9250    0.0690 o         1 MOL     -0.563606
    156 C51         4.2340   -1.1240    1.5330 c3        1 MOL      0.016752
    157 C52         2.9200   -1.9130    1.4820 c3        1 MOL     -0.124894
    158 C53         1.7010   -1.0170    1.3460 c         1 MOL      0.755496
    159 O21         1.6120    0.1170    1.9090 o         1 MOL     -0.795830
    160 O22         0.6610   -1.5300    0.8200 o         1 MOL     -0.795830
    161 H72         6.4780   -0.1320    1.7530 hn        1 MOL     -0.067364
    162 H73         5.3790   -2.7610    2.2110 h1        1 MOL      0.112344
    163 H74         4.3080   -0.2720    0.8570 hc        1 MOL     -0.002351
    164 H75         4.3190   -0.6470    2.5130 hc        1 MOL     -0.002351
    165 H76         2.7810   -2.5270    2.3720 hc        1 MOL      0.064447
    166 H77         2.9820   -2.5520    0.5970 hc        1 MOL      0.064447
    167 N15         6.2640   -2.1250   -0.9050 n         1 MOL      0.016700
    168 C54         6.5740   -2.7310   -2.1490 c3        1 MOL     -0.241304
    169 H78         7.6490   -2.6700   -2.3240 h1        1 MOL      0.082999
    170 H79         6.2680   -3.7770   -2.1300 h1        1 MOL      0.082999
    171 H80         6.0470   -2.2110   -2.9490 h1        1 MOL      0.082999
    172 H81         6.5290   -1.1560   -0.7930 hn        1 MOL      0.080991
    173 Ca1        -1.2240    0.2320    1.5200 Ca        1 MOL      1.728019
    174 O23        -0.6090    1.4600    3.7530 oh        1 MOL     -0.890640
    175 H82        -0.8420    1.2950    4.6630 ho        1 MOL      0.439311
    176 H83         0.3250    1.6950    3.7810 ho        1 MOL      0.439311
@<TRIPOS>BOND
     1    1    2 1   
     2    1    4 1   
     3    1    5 1   
     4    1    6 1   
     5    2    3 2   
     6    2    7 1   
     7    7    8 1   
     8    7   15 1   
     9    8    9 1   
    10    8   11 1   
    11    8   16 1   
    12    9   10 2   
    13    9   19 1   
    14   11   12 1   
    15   11   17 1   
    16   11   18 1   
    17   12   13 1   
    18   12   14 1   
    19   19   20 1   
    20   19   28 1   
    21   20   21 1   
    22   20   23 1   
    23   20   29 1   
    24   21   22 2   
    25   21   41 1   
    26   23   24 1   
    27   23   30 1   
    28   23   31 1   
    29   24   25 1   
    30   24   32 1   
    31   24   33 1   
    32   25   26 1   
    33   25   34 1   
    34   25   35 1   
    35   26   27 1   
    36   26   36 1   
    37   26   37 1   
    38   27   38 1   
    39   27   39 1   
    40   27   40 1   
    41   41   42 1   
    42   41   49 1   
    43   42   43 1   
    44   42   45 1   
    45   42   50 1   
    46   43   44 2   
    47   43   53 1   
    48   45   46 1   
    49   45   51 1   
    50   45   52 1   
    51   46   47 1   
    52   46   48 1   
    53   53   54 1   
    54   53   57 1   
    55   54   55 1   
    56   54   58 1   
    57   54   59 1   
    58   55   56 2   
    59   55   60 1   
    60   60   61 1   
    61   60   68 1   
    62   61   62 1   
    63   61   64 1   
    64   61   69 1   
    65   62   63 2   
    66   62   74 1   
    67   64   65 1   
    68   64   70 1   
    69   64   71 1   
    70   65   66 1   
    71   65   67 2   
    72   66   72 1   
    73   66   73 1   
    74   74   75 1   
    75   74   78 1   
    76   75   76 1   
    77   75   79 1   
    78   75   80 1   
    79   76   77 2   
    80   76   81 1   
    81   81   82 1   
    82   81   93 1   
    83   82   83 1   
    84   82   85 1   
    85   82   94 1   
    86   83   84 2   
    87   83  102 1   
    88   85   86 1   
    89   85   95 1   
    90   85   96 1   
    91   86   87 ar  
    92   86   88 ar  
    93   87   89 ar  
    94   87   97 1   
    95   88   90 ar  
    96   88   98 1   
    97   89   91 ar  
    98   89   99 1   
    99   90   91 ar  
   100   90  100 1   
   101   91   92 1   
   102   92  101 1   
   103  102  103 1   
   104  102  110 1   
   105  103  104 1   
   106  103  106 1   
   107  103  111 1   
   108  104  105 2   
   109  104  121 1   
   110  106  107 1   
   111  106  108 1   
   112  106  112 1   
   113  107  109 1   
   114  107  113 1   
   115  107  114 1   
   116  108  115 1   
   117  108  116 1   
   118  108  117 1   
   119  109  118 1   
   120  109  119 1   
   121  109  120 1   
   122  121  122 1   
   123  121  127 1   
   124  122  123 1   
   125  122  125 1   
   126  122  128 1   
   127  123  124 2   
   128  123  132 1   
   129  125  126 1   
   130  125  129 1   
   131  125  130 1   
   132  126  131 1   
   133  132  133 1   
   134  132  137 1   
   135  133  134 1   
   136  133  136 1   
   137  133  138 1   
   138  134  135 2   
   139  134  142 1   
   140  136  139 1   
   141  136  140 1   
   142  136  141 1   
   143  142  143 1   
   144  142  147 1   
   145  143  144 1   
   146  143  146 1   
   147  143  148 1   
   148  144  145 2   
   149  144  152 1   
   150  146  149 1   
   151  146  150 1   
   152  146  151 1   
   153  152  153 1   
   154  152  161 1   
   155  153  154 1   
   156  153  156 1   
   157  153  162 1   
   158  154  155 2   
   159  154  167 1   
   160  156  157 1   
   161  156  163 1   
   162  156  164 1   
   163  157  158 1   
   164  157  165 1   
   165  157  166 1   
   166  158  159 1   
   167  158  160 1   
   168  167  168 1   
   169  167  172 1   
   170  168  169 1   
   171  168  170 1   
   172  168  171 1   
   173  174  175 1   
   174  174  176 1   
@<TRIPOS>SUBSTRUCTURE
     1 MOL         1 TEMP              0 ****  ****    0 ROOT
