@<TRIPOS>MOLECULE
MOL
  186   183     1     0     0
SMALL
resp


@<TRIPOS>ATOM
      1 C1          0.0770   -3.5500    6.3020 c3        1 MOL     -0.396567
      2 C2          0.7260   -3.1420    4.9210 c         1 MOL      0.702334
      3 O1          0.6330   -1.9620    4.5580 o         1 MOL     -0.583315
      4 H1          0.4890   -2.9250    7.0950 hc        1 MOL      0.099484
      5 H2         -1.0020   -3.4080    6.2520 hc        1 MOL      0.099484
      6 H3          0.2980   -4.5960    6.5130 hc        1 MOL      0.099484
      7 N1          1.3010   -4.1280    4.1920 n         1 MOL     -0.548624
      8 C3          2.0030   -3.8240    2.8780 c3        1 MOL      0.115561
      9 C4          1.8960   -4.9290    1.7690 c         1 MOL      0.657293
     10 O2          1.7620   -6.0740    2.1220 o         1 MOL     -0.612395
     11 C5          3.4980   -3.5980    3.2610 c3        1 MOL     -0.255721
     12 C6          4.3930   -3.1200    2.1250 c         1 MOL      0.701099
     13 O3          5.5490   -3.5850    2.0570 o         1 MOL     -0.649989
     14 O4          3.9120   -2.3280    1.2350 o         1 MOL     -0.649989
     15 H4          1.2540   -5.0580    4.5730 hn        1 MOL      0.311642
     16 H5          1.5780   -2.9120    2.4660 h1        1 MOL      0.036646
     17 H6          3.8870   -4.5460    3.6280 hc        1 MOL      0.042475
     18 H7          3.4880   -2.8110    4.0080 hc        1 MOL      0.042475
     19 N2          1.9380   -4.7050    0.4790 n         1 MOL     -0.371635
     20 C7          1.9650   -5.7700   -0.5980 c3        1 MOL     -0.067126
     21 C8          3.0550   -5.5180   -1.6290 c         1 MOL      0.456126
     22 O5          3.2150   -6.3570   -2.5420 o         1 MOL     -0.561466
     23 C9          0.5140   -5.8120   -1.2830 c3        1 MOL      0.185358
     24 C10         0.1160   -4.5270   -2.0120 c3        1 MOL     -0.047394
     25 C11        -0.5570   -6.2710   -0.2690 c3        1 MOL     -0.340573
     26 C12        -1.2490   -4.5520   -2.9090 c3        1 MOL     -0.322559
     27 H8          1.7640   -3.7450    0.2280 hn        1 MOL      0.214918
     28 H9          2.1280   -6.7720   -0.2080 h1        1 MOL      0.113099
     29 H10         0.6870   -6.6270   -1.9890 hc        1 MOL     -0.027495
     30 H11         0.8940   -4.2590   -2.7300 hc        1 MOL      0.081119
     31 H12        -0.0420   -3.6840   -1.3310 hc        1 MOL      0.081119
     32 H13        -0.7750   -5.4400    0.4100 hc        1 MOL      0.078800
     33 H14        -1.4870   -6.4180   -0.8330 hc        1 MOL      0.078800
     34 H15        -0.2270   -7.1110    0.3330 hc        1 MOL      0.078800
     35 H16        -1.3680   -3.5510   -3.3370 hc        1 MOL      0.093363
     36 H17        -1.0760   -5.3160   -3.6730 hc        1 MOL      0.093363
     37 H18        -2.0740   -4.8660   -2.2700 hc        1 MOL      0.093363
     38 N3          3.7910   -4.4100   -1.4220 n         1 MOL     -0.365684
     39 C13         4.7570   -3.8570   -2.4340 c3        1 MOL     -0.042651
     40 C14         6.0190   -3.0980   -1.9350 c         1 MOL      0.396894
     41 O6          7.0430   -2.9940   -2.5930 o         1 MOL     -0.590910
     42 C15         3.8430   -3.0280   -3.3990 c3        1 MOL     -0.012377
     43 C16         3.0260   -1.9220   -2.7410 c         1 MOL      0.640767
     44 O7          3.3130   -1.5710   -1.5890 o         1 MOL     -0.667829
     45 O8          2.1050   -1.4080   -3.4570 o         1 MOL     -0.667829
     46 H19         3.5230   -3.8210   -0.6510 hn        1 MOL      0.300704
     47 H20         5.1390   -4.7260   -2.9720 h1        1 MOL      0.087932
     48 H21         3.2490   -3.7580   -3.9400 hc        1 MOL      0.012095
     49 H22         4.3950   -2.6400   -4.2590 hc        1 MOL      0.012095
     50 N4          5.9470   -2.4890   -0.7650 n         1 MOL      0.192006
     51 C17         7.0600   -1.8460   -0.0690 c3        1 MOL     -0.518247
     52 C18         7.5060   -0.5240   -0.6100 c         1 MOL      0.693516
     53 O9          8.6060   -0.0260   -0.3130 o         1 MOL     -0.659903
     54 H23         5.0490   -2.5450   -0.3250 hn        1 MOL     -0.104851
     55 H24         7.8570   -2.5660   -0.2510 h1        1 MOL      0.168490
     56 H25         6.9220   -1.7780    1.0090 h1        1 MOL      0.168490
     57 N5          6.6410    0.0950   -1.3690 n         1 MOL     -0.316354
     58 C19         6.8950    1.4390   -1.9290 c3        1 MOL     -0.128245
     59 C20         6.9950    2.6280   -0.9570 c         1 MOL      0.477903
     60 O10         7.0500    3.7330   -1.4970 o         1 MOL     -0.527809
     61 C21         5.8270    1.6910   -2.9970 c3        1 MOL      0.003705
     62 C22         4.4450    1.7790   -2.4720 c         1 MOL      0.711202
     63 O11         4.2080    1.4740   -1.2950 o         1 MOL     -0.716381
     64 O12         3.5000    2.1860   -3.2360 o         1 MOL     -0.716381
     65 H26         5.7790   -0.3400   -1.6720 hn        1 MOL      0.214291
     66 H27         7.8110    1.3740   -2.5000 h1        1 MOL      0.108970
     67 H28         5.7550    0.9000   -3.7370 hc        1 MOL      0.009999
     68 H29         6.0540    2.6140   -3.5430 hc        1 MOL      0.009999
     69 N6          6.8840    2.4820    0.3720 n         1 MOL     -0.342520
     70 C23         6.9770    3.6060    1.3330 c3        1 MOL     -0.071291
     71 C24         5.6060    4.2700    1.5880 c         1 MOL      0.452126
     72 O13         5.5680    5.2410    2.3370 o         1 MOL     -0.580178
     73 H30         6.8620    1.5260    0.6940 hn        1 MOL      0.271057
     74 H31         7.6250    4.3850    0.9300 h1        1 MOL      0.090744
     75 H32         7.4150    3.3020    2.2850 h1        1 MOL      0.090744
     76 N7          4.5730    3.9040    0.8380 n         1 MOL     -0.402988
     77 C25         3.3050    4.6480    0.7180 c3        1 MOL      0.357153
     78 C26         2.1440    3.6880    0.7980 c         1 MOL      0.216767
     79 O14         2.2710    2.4940    0.6300 o         1 MOL     -0.446857
     80 C27         3.1610    5.4350   -0.5360 c3        1 MOL     -0.240491
     81 C28         4.0790    6.6980   -0.5750 c3        1 MOL     -0.309937
     82 C29         3.5330    7.6890   -1.5010 c         1 MOL      0.708215
     83 N8          3.3840    7.4090   -2.7940 n         1 MOL     -0.838163
     84 O15         3.3280    8.8520   -1.1130 o         1 MOL     -0.603867
     85 H33         4.7070    3.1620    0.1690 hn        1 MOL      0.290019
     86 H34         3.1990    5.3400    1.5570 h1        1 MOL      0.007255
     87 H35         2.1970    5.9540   -0.5280 hc        1 MOL      0.098347
     88 H36         3.3210    4.8140   -1.4090 hc        1 MOL      0.098347
     89 H37         5.0390    6.2920   -0.9090 hc        1 MOL      0.126595
     90 H38         4.1650    7.0780    0.4360 hc        1 MOL      0.126595
     91 H39         3.6590    6.4880   -3.0870 hn        1 MOL      0.378978
     92 H40         2.7960    7.9860   -3.3760 hn        1 MOL      0.378978
     93 N9          0.9270    4.2240    1.0930 n         1 MOL     -0.328619
     94 C30        -0.2780    3.4640    1.3870 c3        1 MOL      0.052897
     95 C31        -1.3650    3.6680    0.3530 c         1 MOL      0.339808
     96 O16        -1.9310    4.7370    0.2710 o         1 MOL     -0.544604
     97 C32        -0.7170    3.8010    2.8160 c3        1 MOL      0.261634
     98 C33        -1.9680    3.1400    3.2660 c3        1 MOL     -0.232544
     99 C34         0.3760    3.4710    3.8180 c3        1 MOL     -0.232544
    100 H41         0.8610    5.2110    1.2860 hn        1 MOL      0.258782
    101 H42         0.0250    2.4190    1.3760 h1        1 MOL      0.138973
    102 H43        -0.9420    4.8690    2.8060 hc        1 MOL     -0.049027
    103 H44        -2.3550    3.6540    4.1380 hc        1 MOL      0.039862
    104 H45        -2.6920    3.3160    2.4750 hc        1 MOL      0.039862
    105 H46        -1.9310    2.0790    3.5150 hc        1 MOL      0.039862
    106 H47         1.0820    4.2830    3.6770 hc        1 MOL      0.039862
    107 H48         0.0350    3.4730    4.8580 hc        1 MOL      0.039862
    108 H49         0.8130    2.5120    3.5370 hc        1 MOL      0.039862
    109 N10        -1.7390    2.5790   -0.3370 n         1 MOL     -0.175517
    110 C35        -2.8700    2.5590   -1.2570 c3        1 MOL      0.061075
    111 C36        -4.2010    2.2940   -0.5340 c         1 MOL      0.175484
    112 O17        -4.1350    1.9040    0.6800 o         1 MOL     -0.117265
    113 C37        -2.6230    1.4340   -2.2920 c3        1 MOL     -0.468807
    114 C38        -3.7360    1.2180   -3.3130 c         1 MOL      0.752516
    115 N11        -3.9900    2.2460   -4.1280 n         1 MOL     -0.779182
    116 O18        -4.5400    0.2450   -3.2290 o         1 MOL     -0.535505
    117 H50        -1.1500    1.7570   -0.2980 hn        1 MOL      0.264507
    118 H51        -2.9750    3.4970   -1.8050 h1        1 MOL      0.069749
    119 H52        -2.6020    0.4810   -1.7650 hc        1 MOL      0.184206
    120 H53        -1.7100    1.4500   -2.9070 hc        1 MOL      0.184206
    121 H54        -3.4690    3.1000   -4.0400 hn        1 MOL      0.350040
    122 H55        -4.7740    2.2340   -4.7750 hn        1 MOL      0.350040
    123 N12        -5.3690    2.4370   -1.2410 n         1 MOL     -0.280166
    124 C39        -6.6090    2.1720   -0.6350 c3        1 MOL      0.072115
    125 C40        -6.7090    0.7650   -0.0310 c         1 MOL      0.664738
    126 O19        -7.3450    0.5720    1.0310 o         1 MOL     -0.537607
    127 C41        -7.6640    2.3030   -1.7130 c3        1 MOL     -0.013614
    128 C42        -9.1110    1.8950   -1.3880 ca        1 MOL     -0.075418
    129 C43        -9.6250    2.5310   -0.2450 ca        1 MOL     -0.071380
    130 C44        -9.7150    0.9190   -2.1480 ca        1 MOL     -0.071380
    131 C45       -10.8380    2.0030    0.2280 ca        1 MOL     -0.389504
    132 C46       -10.9470    0.4350   -1.6580 ca        1 MOL     -0.389504
    133 C47       -11.4870    0.9460   -0.4100 ca        1 MOL      0.473483
    134 O20       -12.6150    0.4470    0.1450 oh        1 MOL     -0.520315
    135 H56        -5.3340    2.8740   -2.1520 hn        1 MOL      0.211387
    136 H57        -6.8080    2.8500    0.1950 h1        1 MOL      0.014959
    137 H58        -7.3920    1.7440   -2.6090 hc        1 MOL      0.013266
    138 H59        -7.6470    3.3160   -2.1050 hc        1 MOL      0.013266
    139 H60        -9.0830    3.2630    0.3460 ha        1 MOL      0.138612
    140 H61        -9.2770    0.5320   -3.0600 ha        1 MOL      0.138612
    141 H62       -11.2330    2.3400    1.1760 ha        1 MOL      0.171228
    142 H63       -11.3300   -0.4820   -2.0750 ha        1 MOL      0.171228
    143 H64       -12.7800   -0.4020   -0.2850 ho        1 MOL      0.357837
    144 N13        -6.1320   -0.2230   -0.7140 n         1 MOL     -0.498745
    145 C48        -6.2480   -1.6090   -0.2230 c3        1 MOL     -0.052671
    146 C49        -5.3130   -1.9010    1.0050 c         1 MOL      0.333542
    147 O21        -5.5280   -2.9280    1.7020 o         1 MOL     -0.513138
    148 C50        -5.9510   -2.6470   -1.3400 c3        1 MOL     -0.082412
    149 C51        -4.5690   -2.7370   -2.0110 c3        1 MOL     -0.013293
    150 C52        -4.5920   -3.6030   -3.2580 c         1 MOL      0.667649
    151 O22        -4.9860   -4.7980   -3.2150 o         1 MOL     -0.735037
    152 O23        -4.2510   -3.0700   -4.3660 o         1 MOL     -0.735037
    153 H65        -5.9400   -0.1270   -1.6960 hn        1 MOL      0.312528
    154 H66        -7.2480   -1.8320    0.1820 h1        1 MOL      0.089766
    155 H67        -6.6090   -2.5330   -2.2030 hc        1 MOL      0.038601
    156 H68        -6.3440   -3.5660   -0.9270 hc        1 MOL      0.038601
    157 H69        -3.9860   -3.3700   -1.3480 hc        1 MOL     -0.009100
    158 H70        -4.0500   -1.7980   -2.1820 hc        1 MOL     -0.009100
    159 N14        -4.2950   -1.0510    1.2430 n         1 MOL     -0.026145
    160 C53        -3.3960   -1.0720    2.4340 c3        1 MOL     -0.067391
    161 C54        -4.1050   -0.2580    3.5470 c         1 MOL      0.409687
    162 O24        -4.2340   -0.7130    4.6640 o         1 MOL     -0.542101
    163 C55        -1.9450   -0.6200    2.0460 c3        1 MOL      0.185154
    164 C56        -1.4250   -1.5710    0.9550 c3        1 MOL     -0.262434
    165 C57        -0.0350   -1.0570    0.3890 c         1 MOL      1.025832
    166 O25         0.8990   -1.8400    0.2740 o         1 MOL     -0.908385
    167 O26         0.1250    0.1520    0.0880 o         1 MOL     -0.908385
    168 H71        -4.2530   -0.2870    0.5880 hn        1 MOL      0.134735
    169 H72        -3.4250   -2.1060    2.7640 h1        1 MOL      0.073019
    170 H73        -1.2740   -0.7150    2.8900 hc        1 MOL     -0.011920
    171 H74        -1.9400    0.4130    1.7150 hc        1 MOL     -0.011920
    172 H75        -2.1450   -1.6820    0.1490 hc        1 MOL      0.048155
    173 H76        -1.3660   -2.5560    1.4240 hc        1 MOL      0.048155
    174 N15        -4.5190    0.9970    3.2040 n         1 MOL     -0.002826
    175 C58        -5.2120    1.8580    4.0920 c3        1 MOL     -0.077485
    176 H77        -4.7500    2.8450    4.0750 h1        1 MOL      0.032463
    177 H78        -6.2540    1.9400    3.7810 h1        1 MOL      0.032463
    178 H79        -5.1650    1.4530    5.1030 h1        1 MOL      0.032463
    179 H80        -4.4200    1.2590    2.2280 hn        1 MOL     -0.136390
    180 Ca1         2.8670   -0.1620    0.3180 Ca        1 MOL      1.726000
    181 O27         1.8150   -0.2020    2.9280 oh        1 MOL     -0.850687
    182 H81         1.5940   -0.9280    3.5110 ho        1 MOL      0.403642
    183 H82         2.2280    0.4560    3.5030 ho        1 MOL      0.403642
    184 O28         4.8710    0.6730    2.1410 oh        1 MOL     -0.850687
    185 H83         5.7520    0.4540    2.4460 ho        1 MOL      0.403642
    186 H84         4.4990    1.2130    2.8430 ho        1 MOL      0.403642
@<TRIPOS>BOND
     1    1    2 1   
     2    1    4 1   
     3    1    5 1   
     4    1    6 1   
     5    2    3 2   
     6    2    7 1   
     7    7    8 1   
     8    7   15 1   
     9    8    9 1   
    10    8   11 1   
    11    8   16 1   
    12    9   10 2   
    13    9   19 1   
    14   11   12 1   
    15   11   17 1   
    16   11   18 1   
    17   12   13 1   
    18   12   14 1   
    19   19   20 1   
    20   19   27 1   
    21   20   21 1   
    22   20   23 1   
    23   20   28 1   
    24   21   22 2   
    25   21   38 1   
    26   23   24 1   
    27   23   25 1   
    28   23   29 1   
    29   24   26 1   
    30   24   30 1   
    31   24   31 1   
    32   25   32 1   
    33   25   33 1   
    34   25   34 1   
    35   26   35 1   
    36   26   36 1   
    37   26   37 1   
    38   38   39 1   
    39   38   46 1   
    40   39   40 1   
    41   39   42 1   
    42   39   47 1   
    43   40   41 2   
    44   40   50 1   
    45   42   43 1   
    46   42   48 1   
    47   42   49 1   
    48   43   44 1   
    49   43   45 1   
    50   50   51 1   
    51   50   54 1   
    52   51   52 1   
    53   51   55 1   
    54   51   56 1   
    55   52   53 2   
    56   52   57 1   
    57   57   58 1   
    58   57   65 1   
    59   58   59 1   
    60   58   61 1   
    61   58   66 1   
    62   59   60 2   
    63   59   69 1   
    64   61   62 1   
    65   61   67 1   
    66   61   68 1   
    67   62   63 1   
    68   62   64 1   
    69   69   70 1   
    70   69   73 1   
    71   70   71 1   
    72   70   74 1   
    73   70   75 1   
    74   71   72 2   
    75   71   76 1   
    76   76   77 1   
    77   76   85 1   
    78   77   78 1   
    79   77   80 1   
    80   77   86 1   
    81   78   79 2   
    82   78   93 1   
    83   80   81 1   
    84   80   87 1   
    85   80   88 1   
    86   81   82 1   
    87   81   89 1   
    88   81   90 1   
    89   82   83 1   
    90   82   84 2   
    91   83   91 1   
    92   83   92 1   
    93   93   94 1   
    94   93  100 1   
    95   94   95 1   
    96   94   97 1   
    97   94  101 1   
    98   95   96 2   
    99   95  109 1   
   100   97   98 1   
   101   97   99 1   
   102   97  102 1   
   103   98  103 1   
   104   98  104 1   
   105   98  105 1   
   106   99  106 1   
   107   99  107 1   
   108   99  108 1   
   109  109  110 1   
   110  109  117 1   
   111  110  111 1   
   112  110  113 1   
   113  110  118 1   
   114  111  112 2   
   115  111  123 1   
   116  113  114 1   
   117  113  119 1   
   118  113  120 1   
   119  114  115 1   
   120  114  116 2   
   121  115  121 1   
   122  115  122 1   
   123  123  124 1   
   124  123  135 1   
   125  124  125 1   
   126  124  127 1   
   127  124  136 1   
   128  125  126 2   
   129  125  144 1   
   130  127  128 1   
   131  127  137 1   
   132  127  138 1   
   133  128  129 ar  
   134  128  130 ar  
   135  129  131 ar  
   136  129  139 1   
   137  130  132 ar  
   138  130  140 1   
   139  131  133 ar  
   140  131  141 1   
   141  132  133 ar  
   142  132  142 1   
   143  133  134 1   
   144  134  143 1   
   145  144  145 1   
   146  144  153 1   
   147  145  146 1   
   148  145  148 1   
   149  145  154 1   
   150  146  147 2   
   151  146  159 1   
   152  148  149 1   
   153  148  155 1   
   154  148  156 1   
   155  149  150 1   
   156  149  157 1   
   157  149  158 1   
   158  150  151 1   
   159  150  152 1   
   160  159  160 1   
   161  159  168 1   
   162  160  161 1   
   163  160  163 1   
   164  160  169 1   
   165  161  162 2   
   166  161  174 1   
   167  163  164 1   
   168  163  170 1   
   169  163  171 1   
   170  164  165 1   
   171  164  172 1   
   172  164  173 1   
   173  165  166 1   
   174  165  167 1   
   175  174  175 1   
   176  174  179 1   
   177  175  176 1   
   178  175  177 1   
   179  175  178 1   
   180  181  182 1   
   181  181  183 1   
   182  184  185 1   
   183  184  186 1   
@<TRIPOS>SUBSTRUCTURE
     1 MOL         1 TEMP              0 ****  ****    0 ROOT
