@<TRIPOS>MOLECULE
MOL
  189   185     1     0     0
SMALL
resp


@<TRIPOS>ATOM
      1 C1          0.6670   -1.1160    6.5420 c3        1 MOL     -0.295385
      2 C2          0.8770   -0.8460    5.0990 c         1 MOL      0.705122
      3 O1         -0.0830   -0.8100    4.3900 o         1 MOL     -0.602560
      4 H1          0.1150   -2.0480    6.6600 hc        1 MOL      0.077157
      5 H2          1.6330   -1.2000    7.0400 hc        1 MOL      0.077157
      6 H3          0.0990   -0.2990    6.9870 hc        1 MOL      0.077157
      7 N1          2.0890   -0.6420    4.6610 n         1 MOL     -0.530814
      8 C3          2.5550   -0.7690    3.2880 c3        1 MOL      0.102167
      9 C4          2.8370   -2.2870    2.9720 c         1 MOL      0.505765
     10 O2          3.8470   -2.7840    3.3980 o         1 MOL     -0.527203
     11 C5          3.7230    0.1790    2.9210 c3        1 MOL     -0.127736
     12 C6          4.1020    0.4480    1.5130 c         1 MOL      0.551664
     13 O3          5.0120    1.3470    1.2530 o         1 MOL     -0.621813
     14 O4          3.5970   -0.2670    0.6610 o         1 MOL     -0.621813
     15 H4          2.7550   -0.6300    5.4260 hn        1 MOL      0.308110
     16 H5          1.7760   -0.3450    2.6670 h1        1 MOL     -0.017982
     17 H6          4.6350   -0.2930    3.2840 hc        1 MOL      0.039175
     18 H7          3.5770    1.1210    3.4610 hc        1 MOL      0.039175
     19 N2          1.9560   -3.0140    2.2530 n         1 MOL     -0.170565
     20 C7          1.9630   -4.5570    2.1250 c3        1 MOL     -0.167049
     21 C8          3.1170   -5.2490    1.3110 c         1 MOL      0.518424
     22 O5          3.3730   -6.4620    1.2730 o         1 MOL     -0.563780
     23 C9          0.5660   -4.9920    1.5780 c3        1 MOL     -0.165354
     24 C10         0.3280   -4.8320    0.0940 c3        1 MOL      0.147870
     25 C11        -1.1360   -5.0360   -0.3890 c3        1 MOL     -0.149256
     26 C12        -1.5570   -4.2670   -1.6640 c3        1 MOL      0.154669
     27 N3         -0.8540   -4.8450   -2.8730 n4        1 MOL     -0.205621
     28 H8          1.1740   -2.5210    1.8510 hn        1 MOL      0.130601
     29 H9          2.0620   -5.0260    3.1080 h1        1 MOL      0.130093
     30 H10        -0.1720   -4.3950    2.1150 hc        1 MOL      0.081199
     31 H11         0.3200   -6.0400    1.7250 hc        1 MOL      0.081199
     32 H12         0.8630   -5.5620   -0.5080 hc        1 MOL     -0.023221
     33 H13         0.6980   -3.8430   -0.1590 hc        1 MOL     -0.023221
     34 H14        -1.7680   -4.6010    0.3850 hc        1 MOL      0.052667
     35 H15        -1.3200   -6.0960   -0.5120 hc        1 MOL      0.052667
     36 H16        -1.2190   -3.2610   -1.4360 hx        1 MOL     -0.022686
     37 H17        -2.6240   -4.2780   -1.8960 hx        1 MOL     -0.022686
     38 H18         0.1260   -4.9880   -2.6810 hn        1 MOL      0.266735
     39 H19        -1.1700   -5.7590   -3.1620 hn        1 MOL      0.266735
     40 H20        -0.9650   -4.2620   -3.6910 hn        1 MOL      0.266735
     41 N4          3.7270   -4.3800    0.5590 n         1 MOL     -0.199181
     42 C13         4.7050   -4.5950   -0.4750 c3        1 MOL      0.057250
     43 C14         5.7620   -3.4710   -0.5260 c         1 MOL      0.410304
     44 O6          6.7570   -3.6640   -1.2620 o         1 MOL     -0.476909
     45 C15         3.9640   -4.6530   -1.8560 c3        1 MOL     -0.229899
     46 C16         2.8820   -3.5530   -2.1060 c         1 MOL      1.080202
     47 O7          3.1330   -2.4330   -1.6890 o         1 MOL     -0.820090
     48 O8          1.9620   -3.7900   -2.8860 o         1 MOL     -0.820090
     49 H21         3.4040   -3.4410    0.7190 hn        1 MOL     -0.042937
     50 H22         5.1500   -5.5630   -0.2570 h1        1 MOL      0.110263
     51 H23         3.4470   -5.6030   -2.0000 hc        1 MOL      0.033016
     52 H24         4.7070   -4.7190   -2.6620 hc        1 MOL      0.033016
     53 N5          5.6780   -2.3230    0.1890 n         1 MOL     -0.290361
     54 C17         6.9020   -1.5570    0.5070 c3        1 MOL     -0.340852
     55 C18         7.4140   -0.7730   -0.6930 c         1 MOL      0.564438
     56 O9          8.5410   -0.8940   -1.1300 o         1 MOL     -0.550208
     57 H25         4.8160   -1.8130    0.3050 hn        1 MOL      0.434729
     58 H26         7.6130   -2.3260    0.7930 h1        1 MOL      0.155622
     59 H27         6.7490   -0.8400    1.3050 h1        1 MOL      0.155622
     60 N6          6.4650   -0.0520   -1.2680 n         1 MOL     -0.103735
     61 C19         6.6970    0.8700   -2.4000 c3        1 MOL     -0.030855
     62 C20         6.7560    2.3740   -2.1270 c         1 MOL      0.364738
     63 O10         7.1080    3.1110   -3.0520 o         1 MOL     -0.525711
     64 C21         5.8260    0.4880   -3.6130 c3        1 MOL     -0.121297
     65 C22         4.3780    0.4750   -3.2990 c         1 MOL      0.668739
     66 O11         3.5840   -0.2350   -3.9220 o         1 MOL     -0.651224
     67 O12         3.9960    1.1530   -2.3040 o         1 MOL     -0.651224
     68 H28         5.6160    0.0650   -0.7360 hn        1 MOL     -0.030718
     69 H29         7.6780    0.6260   -2.8020 h1        1 MOL      0.097172
     70 H30         6.1970   -0.4440   -4.0180 hc        1 MOL      0.057187
     71 H31         6.0320    1.2150   -4.3980 hc        1 MOL      0.057187
     72 N7          6.2510    2.8140   -0.9730 n         1 MOL     -0.132236
     73 C23         6.3460    4.1520   -0.4940 c3        1 MOL     -0.138695
     74 C24         5.0380    4.8890   -0.2120 c         1 MOL      0.519718
     75 O13         5.1230    6.0510    0.1440 o         1 MOL     -0.550038
     76 H32         5.7420    2.1920   -0.3610 hn        1 MOL      0.164919
     77 H33         7.0670    4.7420   -1.0380 h1        1 MOL      0.088596
     78 H34         6.7560    4.0330    0.5170 h1        1 MOL      0.088596
     79 N8          3.9110    4.2430   -0.5740 n         1 MOL     -0.253733
     80 C25         2.5520    4.7650   -0.2320 c3        1 MOL     -0.066075
     81 C26         1.5550    3.6200    0.1080 c         1 MOL      0.657854
     82 O14         1.7290    2.4280   -0.1470 o         1 MOL     -0.625964
     83 C27         1.9110    5.6390   -1.2970 c3        1 MOL      0.279569
     84 C28         2.6600    6.8350   -1.8720 c3        1 MOL     -0.399557
     85 O15         1.4690    4.9040   -2.3650 oh        1 MOL     -0.587434
     86 H35         4.0570    3.3950   -1.1040 hn        1 MOL      0.257171
     87 H36         2.6490    5.3650    0.6770 h1        1 MOL      0.092111
     88 H37         0.9880    6.0490   -0.8870 h1        1 MOL     -0.005251
     89 H38         0.8700    5.5190   -2.8020 ho        1 MOL      0.396668
     90 H39         3.0560    7.4410   -1.0550 hc        1 MOL      0.115836
     91 H40         3.5050    6.4860   -2.4670 hc        1 MOL      0.115836
     92 H41         2.0370    7.4110   -2.5600 hc        1 MOL      0.115836
     93 N9          0.5400    4.0000    0.9360 n         1 MOL     -0.599297
     94 C29        -0.6450    3.2470    1.3780 c3        1 MOL      0.124041
     95 C30        -1.9170    3.6020    0.5930 c         1 MOL      0.480424
     96 O16        -2.5000    4.7050    0.6840 o         1 MOL     -0.515250
     97 C31        -0.7050    3.2950    2.8840 c3        1 MOL      0.034156
     98 C32         0.4800    2.5310    3.5450 c3        1 MOL      0.146390
     99 C33        -2.0170    2.8830    3.5210 c3        1 MOL     -0.407838
    100 C34         0.6880    3.0210    5.0060 c3        1 MOL     -0.400290
    101 H42         0.5850    4.9210    1.3440 hn        1 MOL      0.288497
    102 H43        -0.4530    2.1750    1.2840 h1        1 MOL      0.036081
    103 H44        -0.6500    4.3540    3.1400 hc        1 MOL      0.025493
    104 H45         1.3640    2.7380    2.9410 hc        1 MOL      0.048225
    105 H46         0.3460    1.4530    3.5310 hc        1 MOL      0.048225
    106 H47        -2.0510    3.4520    4.4520 hc        1 MOL      0.108092
    107 H48        -2.8910    3.2040    2.9460 hc        1 MOL      0.108092
    108 H49        -1.9050    1.8390    3.8290 hc        1 MOL      0.108092
    109 H50         1.6620    2.6530    5.2990 hc        1 MOL      0.093070
    110 H51         0.6890    4.1170    5.0110 hc        1 MOL      0.093070
    111 H52        -0.0520    2.6000    5.6790 hc        1 MOL      0.093070
    112 N10        -2.2900    2.5330   -0.1690 n         1 MOL     -0.260038
    113 C35        -3.5830    2.4810   -0.9360 c3        1 MOL     -0.069917
    114 C36        -4.9480    2.3370   -0.1760 c         1 MOL      0.350113
    115 O17        -4.9580    2.2230    1.0650 o         1 MOL     -0.314126
    116 C37        -3.5810    1.3600   -1.9920 c3        1 MOL      0.233960
    117 C38        -2.5590    1.6090   -3.0940 c3        1 MOL     -0.425410
    118 O18        -3.2640    0.1790   -1.3080 oh        1 MOL     -0.526821
    119 H53        -1.5790    1.8250   -0.2720 hn        1 MOL      0.197740
    120 H54        -3.7180    3.3760   -1.5530 h1        1 MOL      0.076919
    121 H55        -4.5640    1.2790   -2.4550 h1        1 MOL      0.042579
    122 H56        -2.3490    0.2440   -1.0490 ho        1 MOL      0.349950
    123 H57        -2.6670    0.8590   -3.8670 hc        1 MOL      0.108461
    124 H58        -2.6740    2.5730   -3.5890 hc        1 MOL      0.108461
    125 H59        -1.5370    1.4710   -2.7500 hc        1 MOL      0.108461
    126 N11        -6.0590    2.4220   -0.8670 n         1 MOL     -0.319097
    127 C39        -7.4170    1.9810   -0.3300 c3        1 MOL     -0.072480
    128 C40        -7.2380    0.5360    0.2070 c         1 MOL      0.161507
    129 O19        -7.6380    0.3240    1.4210 o         1 MOL     -0.443703
    130 C41        -8.4880    1.8970   -1.4150 c3        1 MOL      0.279434
    131 C42        -8.7770    3.3230   -1.8900 c3        1 MOL     -0.491471
    132 O20        -8.1100    1.1850   -2.5670 oh        1 MOL     -0.570294
    133 H60        -6.0220    2.8420   -1.7830 hn        1 MOL      0.280576
    134 H61        -7.7310    2.6180    0.4990 h1        1 MOL      0.157232
    135 H62        -9.3680    1.3750   -1.0340 h1        1 MOL      0.058930
    136 H63        -8.8840    0.7050   -2.8640 ho        1 MOL      0.356776
    137 H64        -9.1000    3.9860   -1.0780 hc        1 MOL      0.143212
    138 H65        -7.9230    3.6740   -2.4580 hc        1 MOL      0.143212
    139 H66        -9.6570    3.2370   -2.5310 hc        1 MOL      0.143212
    140 N12        -6.7090   -0.4090   -0.5640 n         1 MOL      0.025021
    141 C43        -6.4270   -1.8290   -0.2250 c3        1 MOL     -0.033925
    142 C44        -5.7210   -1.9840    1.0710 c         1 MOL      0.300919
    143 O21        -6.1080   -2.7950    1.9260 o         1 MOL     -0.492067
    144 C45        -5.6740   -2.4640   -1.3850 c3        1 MOL     -0.228956
    145 C46        -6.2250   -2.2470   -2.8190 c3        1 MOL      0.008569
    146 C47        -7.5890   -2.7290   -3.1910 c3        1 MOL      0.034674
    147 C48        -8.0220   -2.2810   -4.6120 c3        1 MOL     -0.112898
    148 N13        -9.4760   -2.4730   -4.8270 n4        1 MOL     -0.206661
    149 H67        -6.5930   -0.0950   -1.5190 hn        1 MOL      0.091277
    150 H68        -7.4320   -2.2320   -0.1010 h1        1 MOL      0.083388
    151 H69        -5.6390   -3.5170   -1.1060 hc        1 MOL      0.111701
    152 H70        -4.6430   -2.1260   -1.4410 hc        1 MOL      0.111701
    153 H71        -5.5090   -2.6580   -3.5270 hc        1 MOL      0.015474
    154 H72        -6.1180   -1.2010   -3.0830 hc        1 MOL      0.015474
    155 H73        -8.2110   -2.3680   -2.3670 hc        1 MOL      0.024971
    156 H74        -7.5950   -3.8060   -3.0520 hc        1 MOL      0.024971
    157 H75        -7.5300   -2.9230   -5.3560 hx        1 MOL      0.123604
    158 H76        -7.8200   -1.2270   -4.7380 hx        1 MOL      0.123604
    159 H77       -10.0080   -1.9700   -4.1350 hn        1 MOL      0.251438
    160 H78        -9.7300   -2.1560   -5.7430 hn        1 MOL      0.251438
    161 H79        -9.7050   -3.4460   -4.7180 hn        1 MOL      0.251438
    162 N14        -4.7300   -1.1450    1.2580 n         1 MOL     -0.012073
    163 C49        -3.8170   -1.1020    2.4070 c3        1 MOL     -0.125272
    164 C50        -4.3600   -0.3000    3.6340 c         1 MOL      0.463452
    165 O22        -3.9900   -0.6860    4.7870 o         1 MOL     -0.548945
    166 C51        -2.5330   -0.4250    1.8590 c3        1 MOL      0.024702
    167 C52        -1.7940   -1.4310    0.9810 c3        1 MOL     -0.033184
    168 C53        -0.5810   -0.8420    0.2760 c         1 MOL      0.605538
    169 O23        -0.7560    0.1290   -0.4630 o         1 MOL     -0.621600
    170 O24         0.6180   -1.2650    0.3870 o         1 MOL     -0.621600
    171 H80        -4.4870   -0.4290    0.5870 hn        1 MOL      0.069444
    172 H81        -3.7540   -2.1490    2.7060 h1        1 MOL      0.105258
    173 H82        -1.8650   -0.1230    2.6700 hc        1 MOL      0.076856
    174 H83        -2.7150    0.4490    1.2440 hc        1 MOL      0.076856
    175 H84        -2.4710   -1.8340    0.2240 hc        1 MOL      0.007800
    176 H85        -1.5670   -2.3280    1.5510 hc        1 MOL      0.007800
    177 N15        -5.1210    0.7380    3.4460 n         1 MOL     -0.065020
    178 C54        -5.6990    1.3730    4.5910 c3        1 MOL     -0.379746
    179 H86        -6.2390    0.6330    5.1830 h1        1 MOL      0.130743
    180 H87        -4.9100    1.8170    5.1990 h1        1 MOL      0.130743
    181 H88        -6.3890    2.1510    4.2660 h1        1 MOL      0.130743
    182 H89        -5.2480    1.0700    2.5060 hn        1 MOL      0.137201
    183 Ca1         2.0050    0.0450   -1.2920 Ca        1 MOL      1.775287
    184 O25         1.1560    2.1520   -3.0300 oh        1 MOL     -0.873198
    185 H90         0.5040    2.2230   -3.7300 ho        1 MOL      0.403780
    186 H91         1.4750    3.0360   -2.9010 ho        1 MOL      0.403780
    187 O26         0.5070   -1.6690   -2.9220 oh        1 MOL     -0.873198
    188 H92        -0.3890   -1.7400   -3.2360 ho        1 MOL      0.403780
    189 H93         0.9350   -2.4670   -3.2370 ho        1 MOL      0.403780
@<TRIPOS>BOND
     1    1    2 1   
     2    1    4 1   
     3    1    5 1   
     4    1    6 1   
     5    2    3 2   
     6    2    7 1   
     7    7    8 1   
     8    7   15 1   
     9    8    9 1   
    10    8   11 1   
    11    8   16 1   
    12    9   10 2   
    13    9   19 1   
    14   11   12 1   
    15   11   17 1   
    16   11   18 1   
    17   12   13 1   
    18   12   14 1   
    19   19   20 1   
    20   19   28 1   
    21   20   21 1   
    22   20   23 1   
    23   20   29 1   
    24   21   22 2   
    25   21   41 1   
    26   23   24 1   
    27   23   30 1   
    28   23   31 1   
    29   24   25 1   
    30   24   32 1   
    31   24   33 1   
    32   25   26 1   
    33   25   34 1   
    34   25   35 1   
    35   26   27 1   
    36   26   36 1   
    37   26   37 1   
    38   27   38 1   
    39   27   39 1   
    40   27   40 1   
    41   41   42 1   
    42   41   49 1   
    43   42   43 1   
    44   42   45 1   
    45   42   50 1   
    46   43   44 2   
    47   43   53 1   
    48   45   46 1   
    49   45   51 1   
    50   45   52 1   
    51   46   47 1   
    52   46   48 1   
    53   53   54 1   
    54   53   57 1   
    55   54   55 1   
    56   54   58 1   
    57   54   59 1   
    58   55   56 2   
    59   55   60 1   
    60   60   61 1   
    61   60   68 1   
    62   61   62 1   
    63   61   64 1   
    64   61   69 1   
    65   62   63 2   
    66   62   72 1   
    67   64   65 1   
    68   64   70 1   
    69   64   71 1   
    70   65   66 1   
    71   65   67 1   
    72   72   73 1   
    73   72   76 1   
    74   73   74 1   
    75   73   77 1   
    76   73   78 1   
    77   74   75 2   
    78   74   79 1   
    79   79   80 1   
    80   79   86 1   
    81   80   81 1   
    82   80   83 1   
    83   80   87 1   
    84   81   82 2   
    85   81   93 1   
    86   83   84 1   
    87   83   85 1   
    88   83   88 1   
    89   84   90 1   
    90   84   91 1   
    91   84   92 1   
    92   85   89 1   
    93   93   94 1   
    94   93  101 1   
    95   94   95 1   
    96   94   97 1   
    97   94  102 1   
    98   95   96 2   
    99   95  112 1   
   100   97   98 1   
   101   97   99 1   
   102   97  103 1   
   103   98  100 1   
   104   98  104 1   
   105   98  105 1   
   106   99  106 1   
   107   99  107 1   
   108   99  108 1   
   109  100  109 1   
   110  100  110 1   
   111  100  111 1   
   112  112  113 1   
   113  112  119 1   
   114  113  114 1   
   115  113  116 1   
   116  113  120 1   
   117  114  115 2   
   118  114  126 1   
   119  116  117 1   
   120  116  118 1   
   121  116  121 1   
   122  117  123 1   
   123  117  124 1   
   124  117  125 1   
   125  118  122 1   
   126  126  127 1   
   127  126  133 1   
   128  127  128 1   
   129  127  130 1   
   130  127  134 1   
   131  128  129 2   
   132  128  140 1   
   133  130  131 1   
   134  130  132 1   
   135  130  135 1   
   136  131  137 1   
   137  131  138 1   
   138  131  139 1   
   139  132  136 1   
   140  140  141 1   
   141  140  149 1   
   142  141  142 1   
   143  141  144 1   
   144  141  150 1   
   145  142  143 2   
   146  142  162 1   
   147  144  145 1   
   148  144  151 1   
   149  144  152 1   
   150  145  146 1   
   151  145  153 1   
   152  145  154 1   
   153  146  147 1   
   154  146  155 1   
   155  146  156 1   
   156  147  148 1   
   157  147  157 1   
   158  147  158 1   
   159  148  159 1   
   160  148  160 1   
   161  148  161 1   
   162  162  163 1   
   163  162  171 1   
   164  163  164 1   
   165  163  166 1   
   166  163  172 1   
   167  164  165 2   
   168  164  177 1   
   169  166  167 1   
   170  166  173 1   
   171  166  174 1   
   172  167  168 1   
   173  167  175 1   
   174  167  176 1   
   175  168  169 1   
   176  168  170 1   
   177  177  178 1   
   178  177  182 1   
   179  178  179 1   
   180  178  180 1   
   181  178  181 1   
   182  184  185 1   
   183  184  186 1   
   184  187  188 1   
   185  187  189 1   
@<TRIPOS>SUBSTRUCTURE
     1 MOL         1 TEMP              0 ****  ****    0 ROOT
