@<TRIPOS>MOLECULE
MOL
  179   176     1     0     0
SMALL
resp


@<TRIPOS>ATOM
      1 C1          0.4340    4.4500    5.1770 c3        1 MOL     -0.361021
      2 C2          0.1630    3.6790    3.8560 c         1 MOL      0.692979
      3 O1          1.0690    3.5980    3.0220 o         1 MOL     -0.577931
      4 H1          0.3030    5.5190    5.0060 hc        1 MOL      0.095653
      5 H2         -0.2670    4.1180    5.9420 hc        1 MOL      0.095653
      6 H3          1.4540    4.2580    5.5080 hc        1 MOL      0.095653
      7 N1         -1.0470    3.1830    3.6010 n         1 MOL     -0.613822
      8 C3         -1.5160    2.7460    2.2220 c3        1 MOL      0.065814
      9 C4         -2.2020    3.8790    1.4770 c         1 MOL      0.525642
     10 O2         -3.3100    4.3310    1.8750 o         1 MOL     -0.538067
     11 C5         -2.4310    1.5420    2.3850 c3        1 MOL     -0.392400
     12 C6         -3.1330    0.9820    1.1410 c         1 MOL      1.019608
     13 O3         -2.7380    1.3950   -0.0050 o         1 MOL     -0.818785
     14 O4         -3.9870    0.0630    1.2460 o         1 MOL     -0.818785
     15 H4         -1.7170    3.0010    4.3360 hn        1 MOL      0.367647
     16 H5         -0.7150    2.3830    1.5750 h1        1 MOL      0.003610
     17 H6         -3.0470    1.7640    3.2510 hc        1 MOL      0.096450
     18 H7         -1.7570    0.7410    2.7010 hc        1 MOL      0.096450
     19 N2         -1.6180    4.4210    0.4010 n         1 MOL     -0.307228
     20 C7         -2.0200    5.7390   -0.2860 c3        1 MOL     -0.048800
     21 C8         -3.1260    5.5420   -1.3080 c         1 MOL      0.465704
     22 O5         -3.6420    6.5520   -1.8360 o         1 MOL     -0.549066
     23 C9         -0.8420    6.3110   -1.0400 c3        1 MOL      0.001551
     24 C10         0.5000    6.6070   -0.2090 c3        1 MOL     -0.089884
     25 C11         0.1630    7.6280    0.9200 c3        1 MOL     -0.165427
     26 C12         1.3330    8.0180    1.7740 c3        1 MOL      0.168335
     27 N3          1.0290    9.2370    2.5240 n4        1 MOL     -0.419170
     28 H8         -0.7800    4.0060    0.0160 hn        1 MOL      0.282166
     29 H9         -2.3520    6.3980    0.5070 h1        1 MOL      0.084484
     30 H10        -1.1130    7.2380   -1.5380 hc        1 MOL      0.051693
     31 H11        -0.4570    5.6720   -1.8340 hc        1 MOL      0.051693
     32 H12         1.2250    6.9500   -0.9610 hc        1 MOL      0.061034
     33 H13         0.9090    5.7130    0.2660 hc        1 MOL      0.061034
     34 H14        -0.5730    7.1690    1.5760 hc        1 MOL      0.067521
     35 H15        -0.2730    8.4980    0.4340 hc        1 MOL      0.067521
     36 H16         2.1890    8.1150    1.0950 hx        1 MOL      0.061258
     37 H17         1.5500    7.2570    2.5290 hx        1 MOL      0.061258
     38 H18         0.4770    9.0420    3.3460 hn        1 MOL      0.338412
     39 H19         1.8920    9.6800    2.7880 hn        1 MOL      0.338412
     40 H20         0.5290    9.8910    1.9280 hn        1 MOL      0.338412
     41 N4         -3.5190    4.2630   -1.5510 n         1 MOL     -0.275293
     42 C13        -4.6030    3.8850   -2.5370 c3        1 MOL      0.238593
     43 C14        -5.7710    3.1730   -1.8420 c         1 MOL      0.341027
     44 O6         -6.9450    3.1880   -2.2520 o         1 MOL     -0.528737
     45 C15        -4.0530    3.1030   -3.7150 c3        1 MOL     -0.474469
     46 C16        -3.1320    2.0120   -3.2310 c         1 MOL      0.934537
     47 O7         -1.9480    2.2560   -2.8400 o         1 MOL     -0.814704
     48 O8         -3.5520    0.8590   -2.9730 o         1 MOL     -0.814704
     49 H21        -2.9290    3.5700   -1.1110 hn        1 MOL      0.134008
     50 H22        -5.1540    4.8020   -2.7770 h1        1 MOL      0.073270
     51 H23        -3.4490    3.7060   -4.3970 hc        1 MOL      0.120656
     52 H24        -4.9020    2.5920   -4.1710 hc        1 MOL      0.120656
     53 N5         -5.5390    2.5660   -0.6830 n         1 MOL     -0.058354
     54 C17        -6.5600    2.0500    0.2570 c3        1 MOL     -0.321857
     55 C18        -6.9740    0.5900    0.0150 c         1 MOL      0.598906
     56 O9         -7.9470    0.0510    0.5690 o         1 MOL     -0.587912
     57 H25        -4.5650    2.5570   -0.4150 hn        1 MOL      0.081423
     58 H26        -7.3550    2.7940    0.3200 h1        1 MOL      0.144736
     59 H27        -6.0230    1.9860    1.2010 h1        1 MOL      0.144736
     60 N6         -6.2510   -0.0390   -0.9070 n         1 MOL     -0.343478
     61 C19        -6.4350   -1.5010   -1.2520 c3        1 MOL     -0.082625
     62 C20        -6.1550   -2.5130   -0.1690 c         1 MOL      0.386473
     63 O10        -6.3530   -3.6670   -0.5150 o         1 MOL     -0.454777
     64 C21        -5.5420   -1.7230   -2.4830 c3        1 MOL     -0.081869
     65 C22        -4.0910   -2.1130   -2.2520 c         1 MOL      0.502059
     66 N7         -3.4790   -3.0060   -2.9620 n         1 MOL     -0.628120
     67 O11        -3.4460   -1.7220   -1.2540 o         1 MOL     -0.460883
     68 H28        -5.4370    0.4750   -1.2260 hn        1 MOL      0.301171
     69 H29        -7.4790   -1.6140   -1.5660 h1        1 MOL      0.149665
     70 H30        -5.5490   -0.8170   -3.1000 hc        1 MOL      0.050968
     71 H31        -6.1140   -2.5440   -2.9090 hc        1 MOL      0.050968
     72 H32        -3.9490   -3.4230   -3.7510 hn        1 MOL      0.318550
     73 H33        -2.5100   -3.1390   -2.7080 hn        1 MOL      0.318550
     74 N8         -5.8220   -2.0960    1.0850 n         1 MOL     -0.241279
     75 C23        -5.6250   -2.9620    2.2670 c3        1 MOL     -0.227039
     76 C24        -4.1980   -3.4400    2.4000 c         1 MOL      0.599628
     77 O12        -3.9840   -4.3330    3.2110 o         1 MOL     -0.559642
     78 H34        -5.5990   -1.1170    1.1790 hn        1 MOL      0.316283
     79 H35        -6.2960   -3.8170    2.1650 h1        1 MOL      0.132001
     80 H36        -5.9680   -2.5150    3.1970 h1        1 MOL      0.132001
     81 N9         -3.2140   -2.9240    1.6480 n         1 MOL     -0.449535
     82 C25        -1.8620   -3.3740    1.6370 c3        1 MOL      0.122691
     83 C26        -0.8070   -2.2550    1.4270 c         1 MOL      0.493244
     84 O13        -1.0300   -1.2090    0.7370 o         1 MOL     -0.626551
     85 C27        -1.7710   -4.2970    0.4400 c3        1 MOL      0.014343
     86 C28        -2.4070   -5.6090    0.6400 ca        1 MOL      0.297773
     87 C29        -3.7050   -5.8540    0.2700 ca        1 MOL     -0.370283
     88 C30        -1.6800   -6.6970    1.0960 ca        1 MOL     -0.370283
     89 C31        -4.3420   -7.1090    0.3620 ca        1 MOL     -0.094254
     90 C32        -2.2280   -7.9730    1.1790 ca        1 MOL     -0.094254
     91 C33        -3.5600   -8.2260    0.8000 ca        1 MOL      0.190650
     92 O14        -4.0900   -9.4680    0.9210 oh        1 MOL     -0.432890
     93 H37        -3.4560   -2.0910    1.1370 hn        1 MOL      0.301435
     94 H38        -1.5530   -4.0030    2.4740 h1        1 MOL      0.052366
     95 H39        -0.7190   -4.4290    0.2230 hc        1 MOL     -0.039830
     96 H40        -2.1620   -3.7840   -0.4380 hc        1 MOL     -0.039830
     97 H41        -4.2690   -5.0340   -0.1510 ha        1 MOL      0.158607
     98 H42        -0.6830   -6.4610    1.4070 ha        1 MOL      0.158607
     99 H43        -5.3700   -7.2900    0.0870 ha        1 MOL      0.112846
    100 H44        -1.6280   -8.7590    1.6210 ha        1 MOL      0.112846
    101 H45        -3.4210  -10.0800    1.2250 ho        1 MOL      0.332770
    102 N10         0.4010   -2.4530    1.9460 n         1 MOL     -0.418349
    103 C34         1.6780   -1.7780    1.4190 c3        1 MOL     -0.076959
    104 C35         2.7220   -2.7900    1.0420 c         1 MOL      0.644610
    105 O15         2.9300   -3.7890    1.7000 o         1 MOL     -0.584985
    106 C36         2.1900   -0.7490    2.4610 c3        1 MOL      0.034335
    107 C37         2.7380   -1.3920    3.7100 c3        1 MOL     -0.103596
    108 C38         1.1570    0.3940    2.6860 c3        1 MOL     -0.499736
    109 C39         3.4100   -0.4080    4.7190 c3        1 MOL     -0.267283
    110 H46         0.6170   -3.3160    2.4150 hn        1 MOL      0.273216
    111 H47         1.4230   -1.2440    0.5110 h1        1 MOL      0.150103
    112 H48         3.0200   -0.3240    1.9020 hc        1 MOL     -0.041044
    113 H49         3.4540   -2.1720    3.4580 hc        1 MOL      0.072032
    114 H50         1.9760   -1.9470    4.2700 hc        1 MOL      0.072032
    115 H51         1.7490    1.2050    3.1100 hc        1 MOL      0.189202
    116 H52         0.7150    0.7140    1.7370 hc        1 MOL      0.189202
    117 H53         0.3510   -0.1310    3.1880 hc        1 MOL      0.189202
    118 H54         2.5600    0.0400    5.2330 hc        1 MOL      0.075412
    119 H55         3.9880   -1.0230    5.4050 hc        1 MOL      0.075412
    120 H56         4.1010    0.2370    4.1610 hc        1 MOL      0.075412
    121 N11         3.4040   -2.5210   -0.0630 n         1 MOL     -0.445573
    122 C40         4.6360   -3.3770   -0.5790 c3        1 MOL      0.014099
    123 C41         5.8750   -2.7370    0.0120 c         1 MOL      0.530234
    124 O16         5.8170   -1.6810    0.6200 o         1 MOL     -0.388063
    125 C42         4.7360   -3.3290   -2.0890 c3        1 MOL     -0.168902
    126 O17         4.9110   -2.0620   -2.6630 oh        1 MOL     -0.490278
    127 H57         3.1230   -1.7510   -0.6420 hn        1 MOL      0.312421
    128 H58         4.5690   -4.4380   -0.3400 h1        1 MOL      0.091371
    129 H59         3.8500   -3.7220   -2.5980 h1        1 MOL      0.111522
    130 H60         5.5620   -3.9970   -2.3680 h1        1 MOL      0.111522
    131 H61         4.0950   -1.9710   -3.1640 ho        1 MOL      0.409521
    132 N12         7.0560   -3.3880   -0.2710 n         1 MOL     -0.538127
    133 C43         8.2860   -2.8250    0.1990 c3        1 MOL      0.173649
    134 C44         8.6520   -1.5420   -0.5300 c         1 MOL      0.549145
    135 O18         9.2810   -0.7560    0.1250 o         1 MOL     -0.539109
    136 C45         9.4490   -3.7770   -0.0060 c3        1 MOL     -0.284867
    137 H62         7.0080   -4.1950   -0.8780 hn        1 MOL      0.307691
    138 H63         8.1780   -2.5180    1.2410 h1        1 MOL      0.071219
    139 H64        10.3110   -3.3770    0.5370 hc        1 MOL      0.085700
    140 H65         9.2320   -4.7360    0.4470 hc        1 MOL      0.085700
    141 H66         9.7230   -3.8580   -1.0520 hc        1 MOL      0.085700
    142 N13         8.1790   -1.1960   -1.7510 n         1 MOL     -0.432842
    143 C46         8.3150    0.1100   -2.4400 c3        1 MOL      0.084429
    144 C47         7.4410    1.2770   -1.8520 c         1 MOL      0.394979
    145 O19         8.0070    2.3250   -1.6410 o         1 MOL     -0.512957
    146 C48         8.0040   -0.1310   -3.9360 c3        1 MOL     -0.285323
    147 H67         7.5470   -1.7840   -2.2660 hn        1 MOL      0.268114
    148 H68         9.3470    0.3890   -2.2210 h1        1 MOL      0.095163
    149 H69         6.9800   -0.4880   -4.0260 hc        1 MOL      0.082248
    150 H70         8.0840    0.8030   -4.4910 hc        1 MOL      0.082248
    151 H71         8.6900   -0.8550   -4.3610 hc        1 MOL      0.082248
    152 N14         6.1840    1.0250   -1.5670 n         1 MOL     -0.082158
    153 C49         5.1550    1.8300   -0.8470 c3        1 MOL     -0.147639
    154 C50         5.6780    2.1780    0.5460 c         1 MOL      0.512135
    155 O20         5.6240    3.2930    0.9580 o         1 MOL     -0.550536
    156 C51         3.8710    1.0430   -0.8370 c3        1 MOL     -0.010295
    157 C52         3.3490    1.0200   -2.2770 c3        1 MOL     -0.324549
    158 C53         2.0190    0.2080   -2.1060 c         1 MOL      0.790970
    159 O21         2.0870   -1.0350   -2.2920 o         1 MOL     -0.756268
    160 O22         1.0810    0.7210   -1.5210 o         1 MOL     -0.756268
    161 H72         5.9550    0.0390   -1.7050 hn        1 MOL      0.067178
    162 H73         5.0040    2.7580   -1.4070 h1        1 MOL      0.108735
    163 H74         3.1550    1.4770   -0.1420 hc        1 MOL      0.088239
    164 H75         4.1370    0.0880   -0.3750 hc        1 MOL      0.088239
    165 H76         3.9490    0.5160   -3.0270 hc        1 MOL      0.080600
    166 H77         3.1780    2.0280   -2.6490 hc        1 MOL      0.080600
    167 N15         6.2900    1.1310    1.2160 n         1 MOL     -0.028578
    168 C54         6.9940    1.3620    2.4420 c3        1 MOL     -0.379697
    169 H78         6.8710    2.4030    2.7410 h1        1 MOL      0.124758
    170 H79         6.5950    0.7120    3.2200 h1        1 MOL      0.124758
    171 H80         8.0540    1.1490    2.2990 h1        1 MOL      0.124758
    172 H81         6.3790    0.2210    0.7880 hn        1 MOL      0.121685
    173 Ca1        -1.3820    0.0650   -1.5780 Ca        1 MOL      1.770358
    174 O23        -1.0230   -0.6280   -4.1750 oh        1 MOL     -0.846326
    175 H82        -0.9190   -1.5230   -4.4930 ho        1 MOL      0.408419
    176 H83        -1.2500   -0.1270   -4.9630 ho        1 MOL      0.408419
    177 O24        -0.3430   -2.3780   -1.9230 oh        1 MOL     -0.846326
    178 H84        -0.4620   -3.2920   -2.1730 ho        1 MOL      0.408419
    179 H85         0.5850   -2.2000   -2.1000 ho        1 MOL      0.408419
@<TRIPOS>BOND
     1    1    2 1   
     2    1    4 1   
     3    1    5 1   
     4    1    6 1   
     5    2    3 2   
     6    2    7 1   
     7    7    8 1   
     8    7   15 1   
     9    8    9 1   
    10    8   11 1   
    11    8   16 1   
    12    9   10 2   
    13    9   19 1   
    14   11   12 1   
    15   11   17 1   
    16   11   18 1   
    17   12   13 1   
    18   12   14 1   
    19   19   20 1   
    20   19   28 1   
    21   20   21 1   
    22   20   23 1   
    23   20   29 1   
    24   21   22 2   
    25   21   41 1   
    26   23   24 1   
    27   23   30 1   
    28   23   31 1   
    29   24   25 1   
    30   24   32 1   
    31   24   33 1   
    32   25   26 1   
    33   25   34 1   
    34   25   35 1   
    35   26   27 1   
    36   26   36 1   
    37   26   37 1   
    38   27   38 1   
    39   27   39 1   
    40   27   40 1   
    41   41   42 1   
    42   41   49 1   
    43   42   43 1   
    44   42   45 1   
    45   42   50 1   
    46   43   44 2   
    47   43   53 1   
    48   45   46 1   
    49   45   51 1   
    50   45   52 1   
    51   46   47 1   
    52   46   48 1   
    53   53   54 1   
    54   53   57 1   
    55   54   55 1   
    56   54   58 1   
    57   54   59 1   
    58   55   56 2   
    59   55   60 1   
    60   60   61 1   
    61   60   68 1   
    62   61   62 1   
    63   61   64 1   
    64   61   69 1   
    65   62   63 2   
    66   62   74 1   
    67   64   65 1   
    68   64   70 1   
    69   64   71 1   
    70   65   66 1   
    71   65   67 2   
    72   66   72 1   
    73   66   73 1   
    74   74   75 1   
    75   74   78 1   
    76   75   76 1   
    77   75   79 1   
    78   75   80 1   
    79   76   77 2   
    80   76   81 1   
    81   81   82 1   
    82   81   93 1   
    83   82   83 1   
    84   82   85 1   
    85   82   94 1   
    86   83   84 2   
    87   83  102 1   
    88   85   86 1   
    89   85   95 1   
    90   85   96 1   
    91   86   87 ar  
    92   86   88 ar  
    93   87   89 ar  
    94   87   97 1   
    95   88   90 ar  
    96   88   98 1   
    97   89   91 ar  
    98   89   99 1   
    99   90   91 ar  
   100   90  100 1   
   101   91   92 1   
   102   92  101 1   
   103  102  103 1   
   104  102  110 1   
   105  103  104 1   
   106  103  106 1   
   107  103  111 1   
   108  104  105 2   
   109  104  121 1   
   110  106  107 1   
   111  106  108 1   
   112  106  112 1   
   113  107  109 1   
   114  107  113 1   
   115  107  114 1   
   116  108  115 1   
   117  108  116 1   
   118  108  117 1   
   119  109  118 1   
   120  109  119 1   
   121  109  120 1   
   122  121  122 1   
   123  121  127 1   
   124  122  123 1   
   125  122  125 1   
   126  122  128 1   
   127  123  124 2   
   128  123  132 1   
   129  125  126 1   
   130  125  129 1   
   131  125  130 1   
   132  126  131 1   
   133  132  133 1   
   134  132  137 1   
   135  133  134 1   
   136  133  136 1   
   137  133  138 1   
   138  134  135 2   
   139  134  142 1   
   140  136  139 1   
   141  136  140 1   
   142  136  141 1   
   143  142  143 1   
   144  142  147 1   
   145  143  144 1   
   146  143  146 1   
   147  143  148 1   
   148  144  145 2   
   149  144  152 1   
   150  146  149 1   
   151  146  150 1   
   152  146  151 1   
   153  152  153 1   
   154  152  161 1   
   155  153  154 1   
   156  153  156 1   
   157  153  162 1   
   158  154  155 2   
   159  154  167 1   
   160  156  157 1   
   161  156  163 1   
   162  156  164 1   
   163  157  158 1   
   164  157  165 1   
   165  157  166 1   
   166  158  159 1   
   167  158  160 1   
   168  167  168 1   
   169  167  172 1   
   170  168  169 1   
   171  168  170 1   
   172  168  171 1   
   173  174  175 1   
   174  174  176 1   
   175  177  178 1   
   176  177  179 1   
@<TRIPOS>SUBSTRUCTURE
     1 MOL         1 TEMP              0 ****  ****    0 ROOT
