@<TRIPOS>MOLECULE
MOL
  172   171     1     0     0
SMALL
resp


@<TRIPOS>ATOM
      1 C1         -0.4160   -3.4930    5.6910 c3        1 MOL     -0.402614
      2 C2          0.1150   -3.5230    4.2160 c         1 MOL      0.679575
      3 O1         -0.6090   -3.9380    3.2660 o         1 MOL     -0.545593
      4 H1         -0.4030   -2.4680    6.0600 hc        1 MOL      0.098963
      5 H2         -1.4360   -3.8760    5.7190 hc        1 MOL      0.098963
      6 H3          0.2230   -4.1130    6.3190 hc        1 MOL      0.098963
      7 N1          1.3700   -3.2510    4.0250 n         1 MOL     -0.515304
      8 C3          2.0570   -3.0930    2.7820 c3        1 MOL      0.105269
      9 C4          2.2090   -4.4030    1.9520 c         1 MOL      0.619009
     10 O2          2.2840   -5.4450    2.4850 o         1 MOL     -0.567621
     11 C5          3.4660   -2.5320    3.1170 c3        1 MOL     -0.240339
     12 C6          4.3030   -2.2680    1.8760 c         1 MOL      0.639729
     13 O3          3.7770   -1.9320    0.7960 o         1 MOL     -0.643319
     14 O4          5.5490   -2.3480    1.9490 o         1 MOL     -0.643319
     15 H4          1.8580   -3.0080    4.8720 hn        1 MOL      0.285826
     16 H5          1.5640   -2.3090    2.2080 h1        1 MOL      0.040011
     17 H6          4.0160   -3.1780    3.7910 hc        1 MOL      0.040595
     18 H7          3.3960   -1.5610    3.6080 hc        1 MOL      0.040595
     19 N2          2.1980   -4.2470    0.6240 n         1 MOL     -0.482485
     20 C7          2.5480   -5.3610   -0.2650 c3        1 MOL      0.306583
     21 C8          3.6280   -5.0030   -1.3200 c         1 MOL      0.374620
     22 O5          3.9820   -5.8000   -2.2220 o         1 MOL     -0.564738
     23 C9          1.1340   -5.7960   -0.9320 c3        1 MOL     -0.263785
     24 H8          2.1060   -3.3100    0.2760 hn        1 MOL      0.355652
     25 H9          2.9780   -6.1740    0.3180 h1        1 MOL      0.013777
     26 H10         1.2930   -6.6240   -1.6180 hc        1 MOL      0.067110
     27 H11         0.4870   -6.1850   -0.1550 hc        1 MOL      0.067110
     28 H12         0.6640   -4.9670   -1.4560 hc        1 MOL      0.067110
     29 N3          4.2280   -3.7530   -1.3550 n         1 MOL     -0.172481
     30 C10         5.0680   -3.3510   -2.5000 c3        1 MOL     -0.098708
     31 C11         6.3030   -2.4530   -2.2970 c         1 MOL      0.506206
     32 O6          7.0580   -2.0630   -3.2280 o         1 MOL     -0.555765
     33 C12         4.1200   -2.7340   -3.5370 c3        1 MOL      0.042412
     34 C13         3.2720   -1.5650   -2.9790 c         1 MOL      0.657798
     35 O7          3.6770   -0.9820   -1.9000 o         1 MOL     -0.678999
     36 O8          2.2530   -1.1990   -3.5870 o         1 MOL     -0.678999
     37 H13         3.9660   -3.0790   -0.6510 hn        1 MOL      0.024268
     38 H14         5.5200   -4.2740   -2.8670 h1        1 MOL      0.100929
     39 H15         3.3860   -3.4760   -3.8620 hc        1 MOL     -0.006403
     40 H16         4.6340   -2.4930   -4.4660 hc        1 MOL     -0.006403
     41 N4          6.5910   -2.1000   -1.0090 n         1 MOL     -0.382773
     42 C14         7.7790   -1.2660   -0.7080 c3        1 MOL     -0.146063
     43 C15         7.5900    0.2550   -1.0700 c         1 MOL      0.459427
     44 O9          8.5740    0.9690   -0.8480 o         1 MOL     -0.601989
     45 H17         5.9870   -2.3760   -0.2430 hn        1 MOL      0.268869
     46 H18         8.6870   -1.6470   -1.1660 h1        1 MOL      0.113980
     47 H19         7.9300   -1.2180    0.3730 h1        1 MOL      0.113980
     48 N5          6.4710    0.7170   -1.6290 n         1 MOL     -0.175671
     49 C16         6.2620    2.1210   -2.1660 c3        1 MOL      0.099854
     50 C17         6.2640    3.1860   -1.0490 c         1 MOL      0.413285
     51 O10         6.5800    4.3460   -1.2840 o         1 MOL     -0.507724
     52 C18         5.0400    2.2080   -3.1600 c3        1 MOL     -0.328229
     53 C19         3.6790    2.0470   -2.4870 c         1 MOL      0.776212
     54 N6          2.6550    2.1760   -3.2320 n         1 MOL     -0.573045
     55 O11         3.5970    1.8940   -1.3380 o         1 MOL     -0.714541
     56 H20         5.7350    0.0550   -1.8360 hn        1 MOL      0.146701
     57 H21         7.1230    2.3390   -2.7940 h1        1 MOL      0.083522
     58 H22         5.2010    1.4270   -3.9030 hc        1 MOL      0.087000
     59 H23         5.1250    3.2170   -3.5750 hc        1 MOL      0.087000
     60 H24         2.6460    2.6190   -4.1500 hn        1 MOL      0.305947
     61 H25         1.7500    1.9630   -2.8500 hn        1 MOL      0.305947
     62 N7          6.1980    2.8130    0.2750 n         1 MOL     -0.156530
     63 C20         6.1470    3.7340    1.3920 c3        1 MOL     -0.360091
     64 C21         4.8460    4.4900    1.6030 c         1 MOL      0.527089
     65 O12         4.8330    5.6280    2.2020 o         1 MOL     -0.566885
     66 H26         5.8870    1.8730    0.4970 hn        1 MOL      0.217986
     67 H27         6.9220    4.4880    1.2350 h1        1 MOL      0.142875
     68 H28         6.3150    3.2030    2.3290 h1        1 MOL      0.142875
     69 N8          3.7150    3.9700    1.1080 n         1 MOL     -0.102118
     70 C22         2.3960    4.5250    1.3790 c3        1 MOL     -0.546158
     71 C23         1.2820    3.4720    1.4890 c         1 MOL      0.751837
     72 O13         1.3510    2.4430    0.8220 o         1 MOL     -0.501389
     73 C24         1.9550    5.3860    0.2030 c3        1 MOL      0.613188
     74 C25         2.6950    6.6980    0.0860 c3        1 MOL     -0.377600
     75 O14         2.1700    4.7670   -1.0660 oh        1 MOL     -0.591829
     76 H29         3.7700    3.2570    0.3900 hn        1 MOL      0.327468
     77 H30         2.4600    5.0260    2.3400 h1        1 MOL      0.169523
     78 H31         0.9060    5.6660    0.3100 h1        1 MOL     -0.010913
     79 H32         2.3660    3.8450   -0.8690 ho        1 MOL      0.241033
     80 H33         1.9450    7.4450   -0.1950 hc        1 MOL      0.084229
     81 H34         3.0180    6.9890    1.0880 hc        1 MOL      0.084229
     82 H35         3.5340    6.7530   -0.6050 hc        1 MOL      0.084229
     83 N9          0.1720    3.6910    2.2370 n         1 MOL     -0.783371
     84 C26        -1.0120    2.8610    2.1380 c3        1 MOL      0.026639
     85 C27        -1.7220    2.9980    0.8440 c         1 MOL      0.630079
     86 O15        -2.1760    4.1000    0.5470 o         1 MOL     -0.604914
     87 C28        -1.9780    2.9790    3.3510 c3        1 MOL      0.191259
     88 C29        -1.2130    3.0980    4.7040 c3        1 MOL      0.119151
     89 C30        -2.9060    1.6690    3.3560 c3        1 MOL     -0.226129
     90 C31        -2.0650    3.1250    5.9650 c3        1 MOL     -0.192628
     91 H36         0.1500    4.4970    2.8430 hn        1 MOL      0.367084
     92 H37        -0.6760    1.8300    2.1960 h1        1 MOL      0.114410
     93 H38        -2.6270    3.8550    3.2830 hc        1 MOL     -0.026628
     94 H39        -0.6490    4.0250    4.7080 hc        1 MOL     -0.028480
     95 H40        -0.4910    2.2850    4.7980 hc        1 MOL     -0.028480
     96 H41        -3.5740    1.7220    2.4940 hc        1 MOL      0.046530
     97 H42        -2.2800    0.7810    3.3510 hc        1 MOL      0.046530
     98 H43        -3.6470    1.6140    4.1580 hc        1 MOL      0.046530
     99 H44        -2.6820    4.0190    5.8900 hc        1 MOL      0.036691
    100 H45        -2.6570    2.2280    6.1130 hc        1 MOL      0.036691
    101 H46        -1.3820    3.1520    6.8210 hc        1 MOL      0.036691
    102 N10        -1.9540    1.8780    0.1560 n         1 MOL     -0.251247
    103 C32        -2.6480    1.7490   -1.1750 c3        1 MOL      0.051886
    104 C33        -4.2000    1.4270   -0.8550 c         1 MOL      0.368203
    105 O16        -4.4410    0.8400    0.2170 o         1 MOL     -0.277778
    106 C34        -1.9320    0.6160   -2.0240 c3        1 MOL     -0.374121
    107 C35        -0.4900    1.1530   -2.4230 c         1 MOL      0.775827
    108 O17         0.4740    0.9570   -1.6530 o         1 MOL     -0.673126
    109 O18        -0.3440    1.7140   -3.5190 o         1 MOL     -0.673126
    110 H47        -1.5380    1.0310    0.5260 hn        1 MOL     -0.001716
    111 H48        -2.6350    2.7470   -1.6250 h1        1 MOL      0.074427
    112 H49        -2.5040    0.3980   -2.9260 hc        1 MOL      0.124755
    113 H50        -1.8090   -0.2860   -1.4250 hc        1 MOL      0.124755
    114 N11        -5.1430    1.7600   -1.7060 n         1 MOL     -0.525256
    115 C36        -6.5590    1.3380   -1.4930 c3        1 MOL      0.233919
    116 C37        -6.7140   -0.2020   -1.2260 c         1 MOL      0.326449
    117 O19        -7.4720   -0.5420   -0.2910 o         1 MOL     -0.484842
    118 C38        -7.3940    1.8100   -2.6340 c3        1 MOL     -0.168180
    119 C39        -8.8870    1.7220   -2.3580 ca        1 MOL      0.154316
    120 C40        -9.5000    2.5040   -1.4360 ca        1 MOL     -0.233326
    121 C41        -9.6250    0.7550   -3.1260 ca        1 MOL     -0.233326
    122 C42       -10.8740    2.4700   -1.2360 ca        1 MOL      0.003156
    123 C43       -11.0370    0.6630   -2.8000 ca        1 MOL      0.003156
    124 C44       -11.6750    1.6920   -2.0490 ca        1 MOL     -0.239104
    125 H51        -4.8670    2.1470   -2.6060 hn        1 MOL      0.333042
    126 H52        -6.8470    1.6960   -0.5060 h1        1 MOL      0.064304
    127 H53        -7.1050    1.2940   -3.5520 hc        1 MOL      0.056071
    128 H54        -7.0950    2.8360   -2.8530 hc        1 MOL      0.056071
    129 H55        -8.9240    3.1960   -0.8320 ha        1 MOL      0.135506
    130 H56        -9.1880    0.0950   -3.8570 ha        1 MOL      0.135506
    131 H57       -11.3170    3.0860   -0.4640 ha        1 MOL      0.079952
    132 H58       -11.5790    0.0380   -3.4990 ha        1 MOL      0.079952
    133 H59       -12.7480    1.7150   -1.9680 ha        1 MOL      0.130003
    134 N12        -6.0180   -1.1930   -1.9550 n         1 MOL     -0.106035
    135 C45        -6.0720   -2.6300   -1.6190 c3        1 MOL     -0.095423
    136 C46        -5.4470   -3.0620   -0.3190 c         1 MOL      0.415557
    137 O20        -5.5040   -4.2390    0.0260 o         1 MOL     -0.530191
    138 C47        -5.2810   -3.2610   -2.7420 c3        1 MOL     -0.080506
    139 C48        -4.3040   -2.1750   -3.2390 c3        1 MOL     -0.168941
    140 C49        -5.2010   -1.0290   -3.1120 c3        1 MOL      0.116031
    141 H60        -7.0970   -2.9800   -1.5890 h1        1 MOL      0.097812
    142 H61        -4.8850   -4.2340   -2.4330 hc        1 MOL      0.057458
    143 H62        -5.9070   -3.5090   -3.6010 hc        1 MOL      0.057458
    144 H63        -3.3840   -2.0360   -2.6720 hc        1 MOL      0.084105
    145 H64        -4.1320   -2.3880   -4.3000 hc        1 MOL      0.084105
    146 H65        -4.4700   -0.2160   -2.9850 h1        1 MOL     -0.010348
    147 H66        -5.7770   -0.9040   -4.0230 h1        1 MOL     -0.010348
    148 N13        -4.7850   -2.1460    0.4240 n         1 MOL      0.000437
    149 C50        -4.1590   -2.3650    1.7540 c3        1 MOL     -0.121293
    150 C51        -4.9380   -1.7690    2.8950 c         1 MOL      0.369704
    151 O21        -5.3240   -2.4420    3.8870 o         1 MOL     -0.537546
    152 C52        -2.7780   -1.7390    1.7710 c3        1 MOL     -0.067168
    153 C53        -1.8060   -2.3130    0.6870 c3        1 MOL      0.156304
    154 C54        -0.4500   -1.5910    0.5430 c         1 MOL      0.598422
    155 O22         0.4390   -2.0390   -0.1770 o         1 MOL     -0.762375
    156 O23        -0.1930   -0.5560    1.1960 o         1 MOL     -0.762375
    157 H67        -4.8680   -1.1810    0.1160 hn        1 MOL      0.045581
    158 H68        -4.1010   -3.4330    1.9430 h1        1 MOL      0.102661
    159 H69        -2.3130   -1.8410    2.7490 hc        1 MOL      0.054667
    160 H70        -2.8630   -0.6950    1.4740 hc        1 MOL      0.054667
    161 H71        -2.3160   -2.2140   -0.2610 hc        1 MOL     -0.007857
    162 H72        -1.6410   -3.3830    0.8600 hc        1 MOL     -0.007857
    163 N14        -5.3270   -0.5310    2.7310 n         1 MOL     -0.004557
    164 C55        -6.3400    0.1770    3.5100 c3        1 MOL     -0.247985
    165 H73        -7.3050   -0.3120    3.3790 h1        1 MOL      0.092163
    166 H74        -6.0650    0.1610    4.5650 h1        1 MOL      0.092163
    167 H75        -6.4070    1.2090    3.1670 h1        1 MOL      0.092163
    168 H76        -4.9450    0.0050    1.9660 hn        1 MOL      0.051689
    169 Ca1         2.1540   -0.0150   -0.0220 Ca        1 MOL      1.721460
    170 O24         3.8120    0.9700    1.8670 oh        1 MOL     -1.021647
    171 H77         4.6710    0.6090    2.0810 ho        1 MOL      0.472570
    172 H78         3.2740    0.8090    2.6460 ho        1 MOL      0.472570
@<TRIPOS>BOND
     1    1    2 1   
     2    1    4 1   
     3    1    5 1   
     4    1    6 1   
     5    2    3 2   
     6    2    7 1   
     7    7    8 1   
     8    7   15 1   
     9    8    9 1   
    10    8   11 1   
    11    8   16 1   
    12    9   10 2   
    13    9   19 1   
    14   11   12 1   
    15   11   17 1   
    16   11   18 1   
    17   12   13 1   
    18   12   14 1   
    19   19   20 1   
    20   19   24 1   
    21   20   21 1   
    22   20   23 1   
    23   20   25 1   
    24   21   22 2   
    25   21   29 1   
    26   23   26 1   
    27   23   27 1   
    28   23   28 1   
    29   29   30 1   
    30   29   37 1   
    31   30   31 1   
    32   30   33 1   
    33   30   38 1   
    34   31   32 2   
    35   31   41 1   
    36   33   34 1   
    37   33   39 1   
    38   33   40 1   
    39   34   35 1   
    40   34   36 1   
    41   41   42 1   
    42   41   45 1   
    43   42   43 1   
    44   42   46 1   
    45   42   47 1   
    46   43   44 2   
    47   43   48 1   
    48   48   49 1   
    49   48   56 1   
    50   49   50 1   
    51   49   52 1   
    52   49   57 1   
    53   50   51 2   
    54   50   62 1   
    55   52   53 1   
    56   52   58 1   
    57   52   59 1   
    58   53   54 1   
    59   53   55 2   
    60   54   60 1   
    61   54   61 1   
    62   62   63 1   
    63   62   66 1   
    64   63   64 1   
    65   63   67 1   
    66   63   68 1   
    67   64   65 2   
    68   64   69 1   
    69   69   70 1   
    70   69   76 1   
    71   70   71 1   
    72   70   73 1   
    73   70   77 1   
    74   71   72 2   
    75   71   83 1   
    76   73   74 1   
    77   73   75 1   
    78   73   78 1   
    79   74   80 1   
    80   74   81 1   
    81   74   82 1   
    82   75   79 1   
    83   83   84 1   
    84   83   91 1   
    85   84   85 1   
    86   84   87 1   
    87   84   92 1   
    88   85   86 2   
    89   85  102 1   
    90   87   88 1   
    91   87   89 1   
    92   87   93 1   
    93   88   90 1   
    94   88   94 1   
    95   88   95 1   
    96   89   96 1   
    97   89   97 1   
    98   89   98 1   
    99   90   99 1   
   100   90  100 1   
   101   90  101 1   
   102  102  103 1   
   103  102  110 1   
   104  103  104 1   
   105  103  106 1   
   106  103  111 1   
   107  104  105 2   
   108  104  114 1   
   109  106  107 1   
   110  106  112 1   
   111  106  113 1   
   112  107  108 1   
   113  107  109 1   
   114  114  115 1   
   115  114  125 1   
   116  115  116 1   
   117  115  118 1   
   118  115  126 1   
   119  116  117 2   
   120  116  134 1   
   121  118  119 1   
   122  118  127 1   
   123  118  128 1   
   124  119  120 ar  
   125  119  121 ar  
   126  120  122 ar  
   127  120  129 1   
   128  121  123 ar  
   129  121  130 1   
   130  122  124 ar  
   131  122  131 1   
   132  123  124 ar  
   133  123  132 1   
   134  124  133 1   
   135  134  135 1   
   136  134  140 1   
   137  135  136 1   
   138  135  138 1   
   139  135  141 1   
   140  136  137 2   
   141  136  148 1   
   142  138  139 1   
   143  138  142 1   
   144  138  143 1   
   145  139  140 1   
   146  139  144 1   
   147  139  145 1   
   148  140  146 1   
   149  140  147 1   
   150  148  149 1   
   151  148  157 1   
   152  149  150 1   
   153  149  152 1   
   154  149  158 1   
   155  150  151 2   
   156  150  163 1   
   157  152  153 1   
   158  152  159 1   
   159  152  160 1   
   160  153  154 1   
   161  153  161 1   
   162  153  162 1   
   163  154  155 1   
   164  154  156 1   
   165  163  164 1   
   166  163  168 1   
   167  164  165 1   
   168  164  166 1   
   169  164  167 1   
   170  170  171 1   
   171  170  172 1   
@<TRIPOS>SUBSTRUCTURE
     1 MOL         1 TEMP              0 ****  ****    0 ROOT
