@<TRIPOS>MOLECULE
MOL
  175   173     1     0     0
SMALL
resp


@<TRIPOS>ATOM
      1 C1          0.5750    4.1150    5.5810 c3        1 MOL     -0.404253
      2 C2          0.0120    3.9500    4.1700 c         1 MOL      0.720979
      3 O1          0.7630    4.0700    3.1990 o         1 MOL     -0.533746
      4 H1          0.5360    5.1670    5.8670 hc        1 MOL      0.099825
      5 H2         -0.0190    3.5270    6.2810 hc        1 MOL      0.099825
      6 H3          1.6090    3.7710    5.6030 hc        1 MOL      0.099825
      7 N1         -1.2940    3.7860    3.9610 n         1 MOL     -0.641196
      8 C3         -2.0110    3.5780    2.7700 c3        1 MOL      0.135413
      9 C4         -1.9800    4.8110    1.8430 c         1 MOL      0.591161
     10 O2         -2.1020    5.9710    2.2450 o         1 MOL     -0.575785
     11 C5         -3.4720    3.0520    3.0490 c3        1 MOL     -0.401615
     12 C6         -4.1500    2.3810    1.8340 c         1 MOL      0.846827
     13 O3         -5.2990    1.9570    1.9840 o         1 MOL     -0.712177
     14 O4         -3.4860    2.0660    0.8210 o         1 MOL     -0.712177
     15 H4         -1.9360    3.9830    4.7200 hn        1 MOL      0.317011
     16 H5         -1.4400    2.8130    2.2470 h1        1 MOL      0.092513
     17 H6         -4.1270    3.8740    3.3580 hc        1 MOL      0.091026
     18 H7         -3.3500    2.3240    3.8500 hc        1 MOL      0.091026
     19 N2         -1.7740    4.4760    0.5260 n         1 MOL     -0.506989
     20 C7         -1.8000    5.4080   -0.5860 c3        1 MOL      0.222713
     21 C8         -2.9010    5.1410   -1.6950 c         1 MOL      0.594942
     22 O5         -3.1510    6.0540   -2.4800 o         1 MOL     -0.581268
     23 C9         -0.3620    5.5190   -1.1080 c3        1 MOL     -0.242473
     24 H8         -1.5470    3.5280    0.2780 hn        1 MOL      0.352657
     25 H9         -2.0790    6.4040   -0.2150 h1        1 MOL      0.023736
     26 H10         0.0900    4.5980   -1.4780 hc        1 MOL      0.051520
     27 H11        -0.4060    6.1030   -2.0280 hc        1 MOL      0.051520
     28 H12         0.2830    6.0680   -0.4070 hc        1 MOL      0.051520
     29 N3         -3.7830    4.0910   -1.5500 n         1 MOL     -0.553271
     30 C10        -4.6770    3.6950   -2.5820 c3        1 MOL      0.371184
     31 C11        -5.9810    3.0570   -2.1250 c         1 MOL      0.434364
     32 O6         -7.0250    3.4310   -2.6390 o         1 MOL     -0.586067
     33 C12        -4.0350    2.7900   -3.7190 c3        1 MOL     -0.341940
     34 C13        -3.4990    1.3790   -3.2800 c         1 MOL      0.742924
     35 O7         -3.0580    0.5750   -4.1730 o         1 MOL     -0.687213
     36 O8         -3.5220    1.0270   -2.0920 o         1 MOL     -0.687213
     37 H13        -3.6260    3.4690   -0.7580 hn        1 MOL      0.176364
     38 H14        -5.0400    4.6050   -3.0660 h1        1 MOL      0.001918
     39 H15        -3.1900    3.3830   -4.0700 hc        1 MOL      0.067503
     40 H16        -4.7280    2.6280   -4.5440 hc        1 MOL      0.067503
     41 N4         -5.9390    2.1140   -1.1530 n         1 MOL     -0.196473
     42 C14        -7.1450    1.3820   -0.6650 c3        1 MOL     -0.132441
     43 C15        -7.2160   -0.0970   -0.9250 c         1 MOL      0.481954
     44 O9         -8.1870   -0.7660   -0.5350 o         1 MOL     -0.626704
     45 H17        -5.0120    1.9490   -0.7750 hn        1 MOL      0.135097
     46 H18        -8.0910    1.7700   -1.0520 h1        1 MOL      0.110596
     47 H19        -7.3980    1.5070    0.3890 h1        1 MOL      0.110596
     48 N5         -6.2380   -0.7210   -1.5850 n         1 MOL     -0.240480
     49 C16        -6.2450   -2.0940   -2.1360 c3        1 MOL     -0.021178
     50 C17        -6.1220   -3.3520   -1.2050 c         1 MOL      0.473929
     51 O10        -5.8270   -4.4010   -1.7380 o         1 MOL     -0.504467
     52 C18        -5.1150   -2.0280   -3.1320 c3        1 MOL      0.002744
     53 C19        -3.7200   -2.1270   -2.4160 c         1 MOL      0.490687
     54 N6         -2.7240   -2.5010   -3.1570 n         1 MOL     -0.572140
     55 O11        -3.4870   -2.0640   -1.1880 o         1 MOL     -0.576875
     56 H20        -5.5100   -0.0710   -1.8590 hn        1 MOL      0.182204
     57 H21        -7.1320   -2.2080   -2.7490 h1        1 MOL      0.088369
     58 H22        -5.2940   -1.1400   -3.7370 hc        1 MOL      0.020579
     59 H23        -5.2290   -2.9120   -3.7580 hc        1 MOL      0.020579
     60 H24        -2.7890   -2.5980   -4.1620 hn        1 MOL      0.337183
     61 H25        -1.7940   -2.6030   -2.7770 hn        1 MOL      0.337183
     62 N7         -6.3110   -3.1100    0.1130 n         1 MOL     -0.322597
     63 C20        -6.3650   -4.1880    1.0800 c3        1 MOL     -0.126669
     64 C21        -5.0240   -4.5840    1.6520 c         1 MOL      0.442326
     65 O12        -4.9870   -5.4190    2.5440 o         1 MOL     -0.555368
     66 H26        -6.3760   -2.1380    0.3700 hn        1 MOL      0.283612
     67 H27        -6.8420   -5.0950    0.7070 h1        1 MOL      0.111396
     68 H28        -6.9860   -3.9580    1.9470 h1        1 MOL      0.111396
     69 N8         -3.8610   -4.0540    1.1900 n         1 MOL     -0.070704
     70 C22        -2.5120   -4.5150    1.4650 c3        1 MOL     -0.237083
     71 C23        -1.4910   -3.4570    1.5480 c         1 MOL      0.565835
     72 O13        -1.5660   -2.3790    0.9110 o         1 MOL     -0.543911
     73 C24        -2.0590   -5.5550    0.3420 c3        1 MOL      0.601434
     74 C25        -3.0320   -6.7790    0.1430 c3        1 MOL     -0.548100
     75 O14        -1.9620   -4.8580   -0.9020 oh        1 MOL     -0.649562
     76 H29        -3.9440   -3.3980    0.4270 hn        1 MOL     -0.005481
     77 H30        -2.4660   -5.0080    2.4390 h1        1 MOL      0.083694
     78 H31        -1.0600   -5.9050    0.6090 h1        1 MOL     -0.038181
     79 H32        -2.4120   -4.0070   -0.8620 ho        1 MOL      0.426790
     80 H33        -3.3000   -7.1760    1.1170 hc        1 MOL      0.133439
     81 H34        -3.9280   -6.4580   -0.3890 hc        1 MOL      0.133439
     82 H35        -2.6450   -7.5570   -0.5160 hc        1 MOL      0.133439
     83 N9         -0.3010   -3.7680    2.1590 n         1 MOL     -0.532097
     84 C26         0.8530   -2.8400    2.1050 c3        1 MOL      0.001050
     85 C27         1.6620   -3.0960    0.8400 c         1 MOL      0.612186
     86 O15         2.0020   -4.2530    0.5510 o         1 MOL     -0.599899
     87 C28         1.7520   -2.9030    3.3740 c3        1 MOL      0.064254
     88 C29         0.8990   -2.6970    4.6480 c3        1 MOL      0.301179
     89 C30         2.8910   -1.8600    3.2990 c3        1 MOL     -0.383977
     90 C31         1.7530   -2.4900    5.9640 c3        1 MOL     -0.243410
     91 H36        -0.1990   -4.6270    2.6740 hn        1 MOL      0.301880
     92 H37         0.5050   -1.8040    2.0710 h1        1 MOL      0.090702
     93 H38         2.2190   -3.8830    3.4690 hc        1 MOL      0.000916
     94 H39         0.3870   -3.6360    4.8630 hc        1 MOL     -0.073996
     95 H40         0.1600   -1.9000    4.6080 hc        1 MOL     -0.073996
     96 H41         3.2160   -1.7990    2.2570 hc        1 MOL      0.089424
     97 H42         2.5710   -0.9350    3.7720 hc        1 MOL      0.089424
     98 H43         3.6980   -2.1230    3.9860 hc        1 MOL      0.089424
     99 H44         2.6900   -3.0210    5.8420 hc        1 MOL      0.044870
    100 H45         2.0020   -1.4340    6.0500 hc        1 MOL      0.044870
    101 H46         1.2430   -2.8520    6.8520 hc        1 MOL      0.044870
    102 N10         1.8210   -2.0490   -0.0100 n         1 MOL     -0.104191
    103 C32         2.5900   -2.0560   -1.2370 c3        1 MOL      0.012001
    104 C33         4.0140   -1.6480   -0.8290 c         1 MOL      0.209350
    105 O16         4.2190   -0.8150    0.1350 o         1 MOL     -0.164096
    106 C34         1.9510   -1.0810   -2.1430 c3        1 MOL     -0.362866
    107 C35         0.5040   -1.2980   -2.5510 c         1 MOL      0.762998
    108 O17         0.1780   -2.0530   -3.5210 o         1 MOL     -0.688343
    109 O18        -0.3610   -0.6860   -1.8750 o         1 MOL     -0.688343
    110 H47         1.3730   -1.1940    0.2770 hn        1 MOL     -0.055406
    111 H48         2.6690   -3.0450   -1.6860 h1        1 MOL      0.086086
    112 H49         2.5780   -0.9770   -3.0310 hc        1 MOL      0.132414
    113 H50         2.0130   -0.0790   -1.7120 hc        1 MOL      0.132414
    114 N11         5.0420   -1.9790   -1.5830 n         1 MOL     -0.382199
    115 C36         6.4320   -1.5110   -1.3050 c3        1 MOL      0.123398
    116 C37         6.6680    0.0110   -1.1170 c         1 MOL      0.344106
    117 O19         7.2590    0.4450   -0.0830 o         1 MOL     -0.473141
    118 C38         7.3270   -2.1190   -2.3020 c3        1 MOL     -0.275408
    119 C39         8.7990   -1.7950   -2.0600 ca        1 MOL      0.131650
    120 C40         9.4650   -0.8800   -2.8560 ca        1 MOL     -0.192684
    121 C41         9.4930   -2.3980   -0.9360 ca        1 MOL     -0.192684
    122 C42        10.8090   -0.6720   -2.6880 ca        1 MOL     -0.036670
    123 C43        10.8780   -2.2040   -0.7800 ca        1 MOL     -0.036670
    124 C44        11.5520   -1.3330   -1.6880 ca        1 MOL     -0.218515
    125 H51         4.8730   -2.6120   -2.3480 hn        1 MOL      0.312333
    126 H52         6.7060   -2.0500   -0.4010 h1        1 MOL      0.115876
    127 H53         6.9520   -1.7820   -3.2650 hc        1 MOL      0.088844
    128 H54         7.2010   -3.2000   -2.2980 hc        1 MOL      0.088844
    129 H55         8.8470   -0.2450   -3.4780 ha        1 MOL      0.122516
    130 H56         8.9140   -3.0400   -0.2870 ha        1 MOL      0.122516
    131 H57        11.2650    0.1150   -3.2690 ha        1 MOL      0.096093
    132 H58        11.3450   -2.7110    0.0570 ha        1 MOL      0.096093
    133 H59        12.5700   -1.0520   -1.4610 ha        1 MOL      0.131357
    134 N12         6.1000    0.9130   -1.9770 n         1 MOL     -0.068146
    135 C45         6.0200    2.3420   -1.7230 c3        1 MOL      0.030618
    136 C46         5.3640    2.8180   -0.3540 c         1 MOL      0.121968
    137 O20         5.6260    3.8780    0.2180 o         1 MOL     -0.476406
    138 C47         5.1770    2.9980   -2.9210 c3        1 MOL     -0.041003
    139 C48         5.1610    1.9540   -3.9700 c3        1 MOL     -0.017331
    140 C49         5.3830    0.6920   -3.2410 c3        1 MOL      0.076286
    141 H60         7.0250    2.7250   -1.8870 h1        1 MOL      0.061656
    142 H61         4.1480    3.1100   -2.5960 hc        1 MOL      0.050092
    143 H62         5.5740    3.9450   -3.2970 hc        1 MOL      0.050092
    144 H63         4.1860    2.0290   -4.4440 hc        1 MOL      0.019283
    145 H64         5.9350    2.0930   -4.7190 hc        1 MOL      0.019283
    146 H65         4.4380    0.1700   -3.0970 h1        1 MOL     -0.017619
    147 H66         5.9040   -0.0200   -3.8870 h1        1 MOL     -0.017619
    148 N13         4.6020    1.9120    0.2960 n         1 MOL      0.202118
    149 C50         3.9720    2.0720    1.6210 c3        1 MOL     -0.070485
    150 C51         4.8330    1.4440    2.6920 c         1 MOL      0.443095
    151 O21         5.1310    2.0530    3.7230 o         1 MOL     -0.564816
    152 C52         2.5270    1.5570    1.6480 c3        1 MOL     -0.086335
    153 C53         1.6810    2.1720    0.5400 c3        1 MOL     -0.050200
    154 C54         0.2980    1.6010    0.4870 c         1 MOL      0.628200
    155 O22        -0.6510    2.1150   -0.1550 o         1 MOL     -0.689958
    156 O23         0.1560    0.4580    0.9890 o         1 MOL     -0.689958
    157 H67         4.4980    1.0140   -0.1530 hn        1 MOL     -0.027631
    158 H68         3.9290    3.1360    1.8440 h1        1 MOL      0.089486
    159 H69         2.1370    1.7500    2.6500 hc        1 MOL      0.044038
    160 H70         2.3570    0.4810    1.5690 hc        1 MOL      0.044038
    161 H71         2.1500    2.0000   -0.4330 hc        1 MOL      0.041499
    162 H72         1.5530    3.2470    0.6710 hc        1 MOL      0.041499
    163 N14         5.4310    0.2580    2.4730 n         1 MOL     -0.014017
    164 C55         6.3630   -0.3400    3.3340 c3        1 MOL     -0.150460
    165 H73         6.8620   -1.1580    2.8170 h1        1 MOL      0.051923
    166 H74         7.1020    0.4010    3.6400 h1        1 MOL      0.051923
    167 H75         5.8480   -0.7260    4.2140 h1        1 MOL      0.051923
    168 H76         5.1800   -0.1940    1.6100 hn        1 MOL      0.005532
    169 Ca1        -2.2740    0.0150   -0.0470 Ca        1 MOL      1.720816
    170 O24        -1.7230   -0.0100    2.6920 oh        1 MOL     -0.799661
    171 H77        -1.7600    0.2520    3.6160 ho        1 MOL      0.388021
    172 H78        -0.8340    0.2150    2.4150 ho        1 MOL      0.388021
    173 O25        -4.5970   -0.6610    1.3510 oh        1 MOL     -0.799661
    174 H79        -5.1000   -1.3030    1.8540 ho        1 MOL      0.388021
    175 H80        -4.8870    0.1910    1.7060 ho        1 MOL      0.388021
@<TRIPOS>BOND
     1    1    2 1   
     2    1    4 1   
     3    1    5 1   
     4    1    6 1   
     5    2    3 2   
     6    2    7 1   
     7    7    8 1   
     8    7   15 1   
     9    8    9 1   
    10    8   11 1   
    11    8   16 1   
    12    9   10 2   
    13    9   19 1   
    14   11   12 1   
    15   11   17 1   
    16   11   18 1   
    17   12   13 1   
    18   12   14 1   
    19   19   20 1   
    20   19   24 1   
    21   20   21 1   
    22   20   23 1   
    23   20   25 1   
    24   21   22 2   
    25   21   29 1   
    26   23   26 1   
    27   23   27 1   
    28   23   28 1   
    29   29   30 1   
    30   29   37 1   
    31   30   31 1   
    32   30   33 1   
    33   30   38 1   
    34   31   32 2   
    35   31   41 1   
    36   33   34 1   
    37   33   39 1   
    38   33   40 1   
    39   34   35 1   
    40   34   36 1   
    41   41   42 1   
    42   41   45 1   
    43   42   43 1   
    44   42   46 1   
    45   42   47 1   
    46   43   44 2   
    47   43   48 1   
    48   48   49 1   
    49   48   56 1   
    50   49   50 1   
    51   49   52 1   
    52   49   57 1   
    53   50   51 2   
    54   50   62 1   
    55   52   53 1   
    56   52   58 1   
    57   52   59 1   
    58   53   54 1   
    59   53   55 2   
    60   54   60 1   
    61   54   61 1   
    62   62   63 1   
    63   62   66 1   
    64   63   64 1   
    65   63   67 1   
    66   63   68 1   
    67   64   65 2   
    68   64   69 1   
    69   69   70 1   
    70   69   76 1   
    71   70   71 1   
    72   70   73 1   
    73   70   77 1   
    74   71   72 2   
    75   71   83 1   
    76   73   74 1   
    77   73   75 1   
    78   73   78 1   
    79   74   80 1   
    80   74   81 1   
    81   74   82 1   
    82   75   79 1   
    83   83   84 1   
    84   83   91 1   
    85   84   85 1   
    86   84   87 1   
    87   84   92 1   
    88   85   86 2   
    89   85  102 1   
    90   87   88 1   
    91   87   89 1   
    92   87   93 1   
    93   88   90 1   
    94   88   94 1   
    95   88   95 1   
    96   89   96 1   
    97   89   97 1   
    98   89   98 1   
    99   90   99 1   
   100   90  100 1   
   101   90  101 1   
   102  102  103 1   
   103  102  110 1   
   104  103  104 1   
   105  103  106 1   
   106  103  111 1   
   107  104  105 2   
   108  104  114 1   
   109  106  107 1   
   110  106  112 1   
   111  106  113 1   
   112  107  108 1   
   113  107  109 1   
   114  114  115 1   
   115  114  125 1   
   116  115  116 1   
   117  115  118 1   
   118  115  126 1   
   119  116  117 2   
   120  116  134 1   
   121  118  119 1   
   122  118  127 1   
   123  118  128 1   
   124  119  120 ar  
   125  119  121 ar  
   126  120  122 ar  
   127  120  129 1   
   128  121  123 ar  
   129  121  130 1   
   130  122  124 ar  
   131  122  131 1   
   132  123  124 ar  
   133  123  132 1   
   134  124  133 1   
   135  134  135 1   
   136  134  140 1   
   137  135  136 1   
   138  135  138 1   
   139  135  141 1   
   140  136  137 2   
   141  136  148 1   
   142  138  139 1   
   143  138  142 1   
   144  138  143 1   
   145  139  140 1   
   146  139  144 1   
   147  139  145 1   
   148  140  146 1   
   149  140  147 1   
   150  148  149 1   
   151  148  157 1   
   152  149  150 1   
   153  149  152 1   
   154  149  158 1   
   155  150  151 2   
   156  150  163 1   
   157  152  153 1   
   158  152  159 1   
   159  152  160 1   
   160  153  154 1   
   161  153  161 1   
   162  153  162 1   
   163  154  155 1   
   164  154  156 1   
   165  163  164 1   
   166  163  168 1   
   167  164  165 1   
   168  164  166 1   
   169  164  167 1   
   170  170  171 1   
   171  170  172 1   
   172  173  174 1   
   173  173  175 1   
@<TRIPOS>SUBSTRUCTURE
     1 MOL         1 TEMP              0 ****  ****    0 ROOT
