@<TRIPOS>MOLECULE
MOL
  189   185     1     0     0
SMALL
resp


@<TRIPOS>ATOM
      1 C1         -0.4770    4.3770    5.3730 c3        1 MOL     -0.421049
      2 C2         -0.5620    3.5750    4.0300 c         1 MOL      0.809774
      3 O1          0.3860    3.6080    3.2470 o         1 MOL     -0.628873
      4 H1          0.0310    3.7720    6.1240 hc        1 MOL      0.101204
      5 H2          0.0800    5.2990    5.2110 hc        1 MOL      0.101204
      6 H3         -1.4830    4.6140    5.7180 hc        1 MOL      0.101204
      7 N1         -1.7030    2.9610    3.7510 n         1 MOL     -0.686193
      8 C3         -2.0230    2.4160    2.4330 c3        1 MOL      0.116798
      9 C4         -2.6750    3.5250    1.5180 c         1 MOL      0.530009
     10 O2         -3.3280    4.4110    2.0540 o         1 MOL     -0.564643
     11 C5         -2.9940    1.2820    2.5770 c3        1 MOL      0.068690
     12 C6         -3.5230    0.7390    1.3360 c         1 MOL      0.451653
     13 O3         -2.6280    0.2870    0.5880 o         1 MOL     -0.617248
     14 O4         -4.7400    0.8970    1.0070 o         1 MOL     -0.617248
     15 H4         -2.4460    3.1510    4.4110 hn        1 MOL      0.349772
     16 H5         -1.1230    2.0480    1.9270 h1        1 MOL     -0.011086
     17 H6         -3.8160    1.7610    3.1150 hc        1 MOL     -0.014783
     18 H7         -2.5180    0.5440    3.2240 hc        1 MOL     -0.014783
     19 N2         -2.5350    3.4430    0.1690 n         1 MOL     -0.193995
     20 C7         -2.6230    4.6440   -0.7770 c3        1 MOL      0.067960
     21 C8         -3.5590    4.3530   -1.9820 c         1 MOL      0.501549
     22 O5         -3.7720    5.2500   -2.7980 o         1 MOL     -0.547502
     23 C9         -1.2390    5.1840   -1.2440 c3        1 MOL     -0.049981
     24 C10        -0.3510    5.7020   -0.0710 c3        1 MOL     -0.109062
     25 C11        -1.0420    6.7830    0.6790 c3        1 MOL     -0.037679
     26 C12        -0.0130    7.1690    1.8130 c3        1 MOL      0.118538
     27 N3         -0.5980    8.1920    2.6880 n4        1 MOL     -0.377474
     28 H8         -2.0080    2.6250   -0.0910 hn        1 MOL      0.157168
     29 H9         -3.1690    5.4090   -0.2270 h1        1 MOL      0.027983
     30 H10        -1.3300    6.0970   -1.8370 hc        1 MOL      0.050977
     31 H11        -0.6970    4.4080   -1.7760 hc        1 MOL      0.050977
     32 H12         0.6160    5.9070   -0.5090 hc        1 MOL      0.057477
     33 H13        -0.1480    4.9050    0.6450 hc        1 MOL      0.057477
     34 H14        -1.9260    6.4200    1.2050 hc        1 MOL      0.040066
     35 H15        -1.2580    7.6740    0.0960 hc        1 MOL      0.040066
     36 H16         0.8660    7.5730    1.3080 hx        1 MOL      0.051223
     37 H17         0.2910    6.3320    2.4390 hx        1 MOL      0.051223
     38 H18        -0.9390    9.0390    2.2620 hn        1 MOL      0.320877
     39 H19        -1.3390    7.7560    3.2280 hn        1 MOL      0.320877
     40 H20         0.0630    8.3280    3.4480 hn        1 MOL      0.320877
     41 N4         -4.0600    3.0960   -2.1660 n         1 MOL     -0.397752
     42 C13        -4.8420    2.7960   -3.2650 c3        1 MOL      0.032505
     43 C14        -6.0940    1.8830   -3.0150 c         1 MOL      0.433247
     44 O6         -6.5930    1.2250   -3.9240 o         1 MOL     -0.492912
     45 C15        -3.9400    2.3050   -4.3810 c3        1 MOL     -0.318364
     46 C16        -3.0450    1.1280   -4.0000 c         1 MOL      0.932739
     47 O7         -2.1290    0.8690   -4.7120 o         1 MOL     -0.727570
     48 O8         -3.2220    0.4360   -2.9540 o         1 MOL     -0.727570
     49 H21        -3.9080    2.4590   -1.4010 hn        1 MOL      0.156127
     50 H22        -5.2860    3.7240   -3.6450 h1        1 MOL      0.103662
     51 H23        -3.3590    3.1970   -4.5980 hc        1 MOL      0.083377
     52 H24        -4.4470    1.9540   -5.2850 hc        1 MOL      0.083377
     53 N5         -6.5500    1.8010   -1.7430 n         1 MOL     -0.311815
     54 C17        -7.7840    1.2090   -1.3160 c3        1 MOL     -0.359209
     55 C18        -7.7460   -0.3310   -1.2920 c         1 MOL      0.578531
     56 O9         -8.6910   -0.9180   -0.7330 o         1 MOL     -0.592371
     57 H25        -5.9870    2.3120   -1.0760 hn        1 MOL      0.276820
     58 H26        -8.6430    1.6320   -1.8390 h1        1 MOL      0.167988
     59 H27        -7.8250    1.5120   -0.2690 h1        1 MOL      0.167988
     60 N6         -6.7230   -1.0010   -1.7820 n         1 MOL     -0.249953
     61 C19        -6.6600   -2.4440   -1.6800 c3        1 MOL     -0.117531
     62 C20        -6.5960   -2.9730   -0.2330 c         1 MOL      0.452042
     63 O10        -7.0300   -4.1000   -0.0080 o         1 MOL     -0.528789
     64 C21        -5.5790   -3.0680   -2.6240 c3        1 MOL     -0.118577
     65 C22        -4.1510   -2.6100   -2.3270 c         1 MOL      0.725557
     66 O11        -3.7630   -2.4630   -1.1740 o         1 MOL     -0.721897
     67 O12        -3.2890   -2.5860   -3.2090 o         1 MOL     -0.721897
     68 H28        -5.9540   -0.5110   -2.2170 hn        1 MOL      0.240063
     69 H29        -7.6360   -2.7590   -2.0570 h1        1 MOL      0.114777
     70 H30        -5.9000   -2.8160   -3.6320 hc        1 MOL      0.062779
     71 H31        -5.7090   -4.1480   -2.5550 hc        1 MOL      0.062779
     72 N7         -6.1930   -2.1460    0.7330 n         1 MOL     -0.072272
     73 C23        -6.0960   -2.3810    2.1260 c3        1 MOL     -0.061619
     74 C24        -4.9740   -3.2980    2.4730 c         1 MOL      0.520756
     75 O13        -5.1720   -4.1780    3.2970 o         1 MOL     -0.573413
     76 H32        -5.9230   -1.2110    0.4810 hn        1 MOL      0.158746
     77 H33        -7.0320   -2.8190    2.4640 h1        1 MOL      0.048296
     78 H34        -5.9640   -1.4320    2.6300 h1        1 MOL      0.048296
     79 N8         -3.8180   -3.2090    1.7940 n         1 MOL     -0.241203
     80 C25        -2.7060   -4.1760    1.9080 c3        1 MOL     -0.285672
     81 C26        -1.4090   -3.3090    1.5890 c         1 MOL      0.641615
     82 O14        -1.4570   -2.4610    0.6670 o         1 MOL     -0.573820
     83 C27        -2.7920   -5.3030    0.8570 c3        1 MOL      0.530131
     84 C28        -3.5590   -6.5830    1.2790 c3        1 MOL     -0.508953
     85 O15        -3.3360   -4.9110   -0.3970 oh        1 MOL     -0.592240
     86 H35        -3.8210   -2.4930    1.0830 hn        1 MOL      0.201512
     87 H36        -2.7080   -4.5960    2.9150 h1        1 MOL      0.134425
     88 H37        -1.7720   -5.6370    0.6780 h1        1 MOL     -0.069589
     89 H38        -3.2490   -3.9590   -0.4650 ho        1 MOL      0.361411
     90 H39        -4.5420   -6.2690    1.6140 hc        1 MOL      0.132182
     91 H40        -3.8810   -7.1650    0.4100 hc        1 MOL      0.132182
     92 H41        -3.1390   -7.1700    2.0920 hc        1 MOL      0.132182
     93 N9         -0.3850   -3.3670    2.4270 n         1 MOL     -0.541133
     94 C29         0.6670   -2.4190    2.4660 c3        1 MOL      0.020673
     95 C30         1.8940   -3.0690    1.8630 c         1 MOL      0.633534
     96 O16         2.3610   -4.1050    2.3130 o         1 MOL     -0.583218
     97 C31         0.8910   -1.8490    3.9040 c3        1 MOL      0.067190
     98 C32        -0.2420   -0.8560    4.0510 c3        1 MOL      0.122277
     99 C33         2.2000   -1.2030    4.2860 c3        1 MOL     -0.337288
    100 C34        -0.4000   -0.0730    5.3760 c3        1 MOL     -0.474433
    101 H42        -0.4850   -3.8800    3.2850 hn        1 MOL      0.305629
    102 H43         0.4210   -1.6200    1.7640 h1        1 MOL     -0.071453
    103 H44         0.6410   -2.6560    4.5920 hc        1 MOL      0.028703
    104 H45        -1.2240   -1.2990    3.8700 hc        1 MOL      0.033030
    105 H46        -0.1700   -0.0980    3.2740 hc        1 MOL      0.033030
    106 H47         2.3370   -0.4470    3.5050 hc        1 MOL      0.085373
    107 H48         2.0950   -0.7250    5.2600 hc        1 MOL      0.085373
    108 H49         2.8890   -2.0320    4.1440 hc        1 MOL      0.085373
    109 H50        -1.4390    0.1990    5.5490 hc        1 MOL      0.128956
    110 H51        -0.0410   -0.6090    6.2530 hc        1 MOL      0.128956
    111 H52         0.2010    0.8280    5.2440 hc        1 MOL      0.128956
    112 N10         2.4480   -2.4880    0.8010 n         1 MOL     -0.216481
    113 C35         3.6580   -2.9450    0.0220 c3        1 MOL     -0.283795
    114 C36         5.0230   -2.4590    0.5930 c         1 MOL      0.545409
    115 O17         5.1040   -1.5380    1.3170 o         1 MOL     -0.349958
    116 C37         3.5000   -2.6060   -1.4680 c3        1 MOL      0.289668
    117 C38         2.3080   -3.2820   -2.1750 c3        1 MOL     -0.421084
    118 O18         3.2660   -1.2630   -1.7720 oh        1 MOL     -0.595960
    119 H53         1.8510   -1.7320    0.4790 hn        1 MOL      0.251074
    120 H54         3.6180   -4.0350    0.0220 h1        1 MOL      0.130585
    121 H55         4.4330   -2.8280   -1.9810 h1        1 MOL      0.022545
    122 H56         2.3780   -1.0200   -1.4840 ho        1 MOL      0.370121
    123 H57         2.1630   -2.8750   -3.1720 hc        1 MOL      0.123231
    124 H58         2.4960   -4.3500   -2.2430 hc        1 MOL      0.123231
    125 H59         1.3990   -3.0860   -1.6030 hc        1 MOL      0.123231
    126 N11         6.1780   -2.9470    0.0630 n         1 MOL     -0.451929
    127 C39         7.4230   -2.2560    0.3590 c3        1 MOL     -0.072404
    128 C40         7.5640   -0.7580    0.0420 c         1 MOL      0.404568
    129 O19         8.3450   -0.0670    0.6580 o         1 MOL     -0.517774
    130 C41         8.5390   -2.9190   -0.4040 c3        1 MOL      0.214701
    131 C42         8.7760   -4.3010    0.0420 c3        1 MOL     -0.303876
    132 O20         8.4450   -2.8830   -1.8170 oh        1 MOL     -0.640791
    133 H60         6.1890   -3.7070   -0.6040 hn        1 MOL      0.298983
    134 H61         7.6690   -2.3380    1.4170 h1        1 MOL      0.142560
    135 H62         9.4640   -2.4460   -0.0590 h1        1 MOL      0.041919
    136 H63         9.0760   -3.5080   -2.1750 ho        1 MOL      0.423504
    137 H64         8.8260   -4.3540    1.1270 hc        1 MOL      0.087854
    138 H65         7.9870   -5.0010   -0.2480 hc        1 MOL      0.087854
    139 H66         9.6610   -4.7900   -0.3660 hc        1 MOL      0.087854
    140 N12         6.7360   -0.2360   -0.8960 n         1 MOL     -0.008856
    141 C43         6.6470    1.1350   -1.2060 c3        1 MOL     -0.204371
    142 C44         5.7020    1.8800   -0.2800 c         1 MOL      0.463202
    143 O21         5.7740    3.0990   -0.2460 o         1 MOL     -0.564757
    144 C45         6.1270    1.2840   -2.6810 c3        1 MOL     -0.214345
    145 C46         6.9940    0.7720   -3.8290 c3        1 MOL      0.044915
    146 C47         8.4000    1.4070   -3.8060 c3        1 MOL     -0.278005
    147 C48         9.0240    1.0470   -5.1640 c3        1 MOL      0.252400
    148 N13        10.1630    1.8830   -5.5400 n4        1 MOL     -0.518814
    149 H67         6.1400   -0.8630   -1.4070 hn        1 MOL      0.220108
    150 H68         7.6540    1.5580   -1.2160 h1        1 MOL      0.125601
    151 H69         5.8810    2.3030   -3.0050 hc        1 MOL      0.122754
    152 H70         5.1030    0.9010   -2.7130 hc        1 MOL      0.122754
    153 H71         6.4350    0.9850   -4.7380 hc        1 MOL      0.021732
    154 H72         7.2060   -0.3010   -3.7820 hc        1 MOL      0.021732
    155 H73         9.0390    1.0000   -3.0260 hc        1 MOL      0.105743
    156 H74         8.2340    2.4750   -3.7270 hc        1 MOL      0.105743
    157 H75         8.2630    1.0220   -5.9370 hx        1 MOL      0.043918
    158 H76         9.2810   -0.0030   -5.3260 hx        1 MOL      0.043918
    159 H77        10.7310    1.4000   -6.2180 hn        1 MOL      0.352178
    160 H78         9.8780    2.7970   -5.8540 hn        1 MOL      0.352178
    161 H79        10.7720    1.9210   -4.7410 hn        1 MOL      0.352178
    162 N14         4.8960    1.2210    0.5190 n         1 MOL      0.004824
    163 C49         3.9710    1.8370    1.5060 c3        1 MOL     -0.282102
    164 C50         4.4860    1.5830    2.9660 c         1 MOL      0.512869
    165 O22         4.1280    2.2740    3.9340 o         1 MOL     -0.519223
    166 C51         2.5830    1.2850    1.2430 c3        1 MOL      0.311321
    167 C52         2.0390    1.6180   -0.1460 c3        1 MOL     -0.130980
    168 C53         0.7560    0.8560   -0.5330 c         1 MOL      0.639424
    169 O23        -0.3310    1.4530   -0.8450 o         1 MOL     -0.632144
    170 O24         0.8130   -0.3700   -0.6910 o         1 MOL     -0.632144
    171 H80         4.8850    0.2170    0.4240 hn        1 MOL     -0.084988
    172 H81         3.8510    2.9130    1.4530 h1        1 MOL      0.130774
    173 H82         1.9040    1.6950    1.9920 hc        1 MOL      0.008087
    174 H83         2.6530    0.2060    1.3860 hc        1 MOL      0.008087
    175 H84         2.7690    1.4060   -0.9250 hc        1 MOL      0.006401
    176 H85         1.7660    2.6710   -0.0880 hc        1 MOL      0.006401
    177 N15         5.3980    0.5610    3.1490 n         1 MOL     -0.291416
    178 C54         5.8000    0.0630    4.4910 c3        1 MOL     -0.306683
    179 H86         6.2350   -0.9310    4.3930 h1        1 MOL      0.126162
    180 H87         6.5360    0.7400    4.9240 h1        1 MOL      0.126162
    181 H88         4.9250    0.0140    5.1390 h1        1 MOL      0.126162
    182 H89         5.8020    0.0600    2.3670 hn        1 MOL      0.235016
    183 Ca1        -1.6190   -0.8690   -1.3970 Ca        1 MOL      1.660291
    184 O25        -0.4190   -0.7640   -3.6940 oh        1 MOL     -0.858759
    185 H90        -0.8660   -0.2510   -4.3660 ho        1 MOL      0.403454
    186 H91        -0.0240   -1.4960   -4.1790 ho        1 MOL      0.403454
    187 O26        -0.9770   -3.5560   -2.1750 oh        1 MOL     -0.858759
    188 H92        -0.6920   -4.3500   -2.6250 ho        1 MOL      0.403454
    189 H93        -1.8950   -3.4690   -2.4190 ho        1 MOL      0.403454
@<TRIPOS>BOND
     1    1    2 1   
     2    1    4 1   
     3    1    5 1   
     4    1    6 1   
     5    2    3 2   
     6    2    7 1   
     7    7    8 1   
     8    7   15 1   
     9    8    9 1   
    10    8   11 1   
    11    8   16 1   
    12    9   10 2   
    13    9   19 1   
    14   11   12 1   
    15   11   17 1   
    16   11   18 1   
    17   12   13 1   
    18   12   14 1   
    19   19   20 1   
    20   19   28 1   
    21   20   21 1   
    22   20   23 1   
    23   20   29 1   
    24   21   22 2   
    25   21   41 1   
    26   23   24 1   
    27   23   30 1   
    28   23   31 1   
    29   24   25 1   
    30   24   32 1   
    31   24   33 1   
    32   25   26 1   
    33   25   34 1   
    34   25   35 1   
    35   26   27 1   
    36   26   36 1   
    37   26   37 1   
    38   27   38 1   
    39   27   39 1   
    40   27   40 1   
    41   41   42 1   
    42   41   49 1   
    43   42   43 1   
    44   42   45 1   
    45   42   50 1   
    46   43   44 2   
    47   43   53 1   
    48   45   46 1   
    49   45   51 1   
    50   45   52 1   
    51   46   47 1   
    52   46   48 1   
    53   53   54 1   
    54   53   57 1   
    55   54   55 1   
    56   54   58 1   
    57   54   59 1   
    58   55   56 2   
    59   55   60 1   
    60   60   61 1   
    61   60   68 1   
    62   61   62 1   
    63   61   64 1   
    64   61   69 1   
    65   62   63 2   
    66   62   72 1   
    67   64   65 1   
    68   64   70 1   
    69   64   71 1   
    70   65   66 1   
    71   65   67 1   
    72   72   73 1   
    73   72   76 1   
    74   73   74 1   
    75   73   77 1   
    76   73   78 1   
    77   74   75 2   
    78   74   79 1   
    79   79   80 1   
    80   79   86 1   
    81   80   81 1   
    82   80   83 1   
    83   80   87 1   
    84   81   82 2   
    85   81   93 1   
    86   83   84 1   
    87   83   85 1   
    88   83   88 1   
    89   84   90 1   
    90   84   91 1   
    91   84   92 1   
    92   85   89 1   
    93   93   94 1   
    94   93  101 1   
    95   94   95 1   
    96   94   97 1   
    97   94  102 1   
    98   95   96 2   
    99   95  112 1   
   100   97   98 1   
   101   97   99 1   
   102   97  103 1   
   103   98  100 1   
   104   98  104 1   
   105   98  105 1   
   106   99  106 1   
   107   99  107 1   
   108   99  108 1   
   109  100  109 1   
   110  100  110 1   
   111  100  111 1   
   112  112  113 1   
   113  112  119 1   
   114  113  114 1   
   115  113  116 1   
   116  113  120 1   
   117  114  115 2   
   118  114  126 1   
   119  116  117 1   
   120  116  118 1   
   121  116  121 1   
   122  117  123 1   
   123  117  124 1   
   124  117  125 1   
   125  118  122 1   
   126  126  127 1   
   127  126  133 1   
   128  127  128 1   
   129  127  130 1   
   130  127  134 1   
   131  128  129 2   
   132  128  140 1   
   133  130  131 1   
   134  130  132 1   
   135  130  135 1   
   136  131  137 1   
   137  131  138 1   
   138  131  139 1   
   139  132  136 1   
   140  140  141 1   
   141  140  149 1   
   142  141  142 1   
   143  141  144 1   
   144  141  150 1   
   145  142  143 2   
   146  142  162 1   
   147  144  145 1   
   148  144  151 1   
   149  144  152 1   
   150  145  146 1   
   151  145  153 1   
   152  145  154 1   
   153  146  147 1   
   154  146  155 1   
   155  146  156 1   
   156  147  148 1   
   157  147  157 1   
   158  147  158 1   
   159  148  159 1   
   160  148  160 1   
   161  148  161 1   
   162  162  163 1   
   163  162  171 1   
   164  163  164 1   
   165  163  166 1   
   166  163  172 1   
   167  164  165 2   
   168  164  177 1   
   169  166  167 1   
   170  166  173 1   
   171  166  174 1   
   172  167  168 1   
   173  167  175 1   
   174  167  176 1   
   175  168  169 1   
   176  168  170 1   
   177  177  178 1   
   178  177  182 1   
   179  178  179 1   
   180  178  180 1   
   181  178  181 1   
   182  184  185 1   
   183  184  186 1   
   184  187  188 1   
   185  187  189 1   
@<TRIPOS>SUBSTRUCTURE
     1 MOL         1 TEMP              0 ****  ****    0 ROOT
