@<TRIPOS>MOLECULE
MOL
  182   178     1     0     0
SMALL
resp


@<TRIPOS>ATOM
      1 C1         -1.9100   -3.0470    5.7160 c3        1 MOL     -0.344681
      2 C2         -1.4170   -2.7090    4.2690 c         1 MOL      0.673582
      3 O1         -2.2490   -2.6070    3.3350 o         1 MOL     -0.628023
      4 H1         -1.8790   -4.1260    5.8670 hc        1 MOL      0.093348
      5 H2         -1.2620   -2.5600    6.4440 hc        1 MOL      0.093348
      6 H3         -2.9320   -2.6920    5.8440 hc        1 MOL      0.093348
      7 N1         -0.1290   -2.6180    4.0540 n         1 MOL     -0.519335
      8 C3          0.5500   -2.4180    2.7150 c3        1 MOL      0.145841
      9 C4          0.7150   -3.7570    1.9490 c         1 MOL      0.440055
     10 O2          1.4850   -4.6130    2.4320 o         1 MOL     -0.555948
     11 C5          1.9410   -1.6890    3.0450 c3        1 MOL     -0.114043
     12 C6          2.7770   -1.3520    1.8280 c         1 MOL      0.960680
     13 O3          2.4130   -1.7000    0.6750 o         1 MOL     -0.826962
     14 O4          3.8860   -0.8230    2.0720 o         1 MOL     -0.826962
     15 H4          0.4180   -2.6600    4.9000 hn        1 MOL      0.309372
     16 H5         -0.1000   -1.7410    2.1650 h1        1 MOL     -0.142742
     17 H6          2.4170   -2.4080    3.7040 hc        1 MOL      0.021727
     18 H7          1.6920   -0.8010    3.6290 hc        1 MOL      0.021727
     19 N2          0.0630   -3.9880    0.8280 n         1 MOL     -0.040471
     20 C7         -0.0460   -5.2980    0.1660 c3        1 MOL     -0.335438
     21 C8          1.0740   -5.6600   -0.8880 c         1 MOL      0.590339
     22 O5          1.0100   -6.6230   -1.6620 o         1 MOL     -0.574011
     23 C9         -1.4090   -5.4220   -0.5420 c3        1 MOL      0.168803
     24 C10        -2.6870   -5.3640    0.3480 c3        1 MOL     -0.050631
     25 C11        -3.9170   -5.2480   -0.6600 c3        1 MOL     -0.171809
     26 C12        -5.2130   -5.2270    0.1390 c3        1 MOL      0.117129
     27 N3         -6.3870   -5.2170   -0.6420 n4        1 MOL     -0.302576
     28 H8         -0.5160   -3.2460    0.4720 hn        1 MOL      0.224791
     29 H9         -0.0470   -6.0390    0.9670 h1        1 MOL      0.138487
     30 H10        -1.4910   -6.3110   -1.1730 hc        1 MOL     -0.008130
     31 H11        -1.5120   -4.5920   -1.2390 hc        1 MOL     -0.008130
     32 H12        -2.6050   -4.4740    0.9780 hc        1 MOL      0.049205
     33 H13        -2.6860   -6.2500    0.9850 hc        1 MOL      0.049205
     34 H14        -3.9260   -6.1630   -1.2670 hc        1 MOL      0.050866
     35 H15        -3.7840   -4.4220   -1.3600 hc        1 MOL      0.050866
     36 H16        -5.2100   -4.2950    0.7130 hx        1 MOL      0.063401
     37 H17        -5.1900   -6.0980    0.7940 hx        1 MOL      0.063401
     38 H18        -7.2620   -5.1970   -0.1480 hn        1 MOL      0.309965
     39 H19        -6.3940   -4.4810   -1.3280 hn        1 MOL      0.309965
     40 H20        -6.3860   -6.0780   -1.1900 hn        1 MOL      0.309965
     41 N4          2.1070   -4.8670   -0.8870 n         1 MOL     -0.289684
     42 C13         3.3860   -5.1040   -1.6250 c3        1 MOL     -0.023045
     43 C14         4.6640   -4.4910   -1.0130 c         1 MOL      0.484582
     44 O6          5.7060   -4.3820   -1.6710 o         1 MOL     -0.502958
     45 C15         3.1610   -4.5890   -3.0870 c3        1 MOL     -0.201894
     46 C16         3.0510   -3.0650   -3.1740 c         1 MOL      0.786581
     47 O7          3.4810   -2.5690   -4.2220 o         1 MOL     -0.716593
     48 O8          2.6090   -2.3450   -2.2500 o         1 MOL     -0.716593
     49 H21         1.9410   -3.9680   -0.4740 hn        1 MOL      0.093269
     50 H22         3.5710   -6.1720   -1.7040 h1        1 MOL      0.119924
     51 H23         2.2930   -5.1020   -3.4900 hc        1 MOL      0.062655
     52 H24         4.1130   -4.8640   -3.5640 hc        1 MOL      0.062655
     53 N5          4.6130   -4.0630    0.2470 n         1 MOL     -0.449588
     54 C17         5.8440   -3.8790    1.0420 c3        1 MOL      0.000739
     55 C18         6.4080   -2.5110    0.7520 c         1 MOL      0.394119
     56 O9          7.5400   -2.2450    1.2210 o         1 MOL     -0.572264
     57 H25         3.7240   -3.9060    0.7010 hn        1 MOL      0.281793
     58 H26         6.5800   -4.6470    0.8080 h1        1 MOL      0.095950
     59 H27         5.6790   -4.0290    2.1080 h1        1 MOL      0.095950
     60 N6          5.7620   -1.6230   -0.0290 n         1 MOL     -0.088275
     61 C19         6.4740   -0.4390   -0.6050 c3        1 MOL     -0.241446
     62 C20         6.5920    0.7500    0.3010 c         1 MOL      0.435513
     63 O10         7.2050    1.6680   -0.1500 o         1 MOL     -0.485268
     64 C21         5.9280   -0.0540   -1.9840 c3        1 MOL     -0.032303
     65 C22         4.6150    0.7390   -1.8880 c         1 MOL      0.441570
     66 N7          4.4590    1.7080   -2.7400 n         1 MOL     -0.739948
     67 O11         3.7680    0.5300   -1.0710 o         1 MOL     -0.499944
     68 H28         4.7800   -1.7330   -0.2570 hn        1 MOL      0.256100
     69 H29         7.4980   -0.7740   -0.7430 h1        1 MOL      0.172471
     70 H30         5.6990   -1.0390   -2.3910 hc        1 MOL      0.055833
     71 H31         6.6380    0.4100   -2.6610 hc        1 MOL      0.055833
     72 H32         5.2390    1.9320   -3.3380 hn        1 MOL      0.367977
     73 H33         3.7000    2.3720   -2.8370 hn        1 MOL      0.367977
     74 N8          6.0360    0.7710    1.4810 n         1 MOL     -0.220631
     75 C23         6.0590    1.9290    2.4290 c3        1 MOL     -0.364343
     76 C24         4.8840    2.8630    2.3300 c         1 MOL      0.827035
     77 O12         4.9030    3.8780    3.0980 o         1 MOL     -0.627732
     78 H34         5.3450    0.0460    1.6630 hn        1 MOL      0.313786
     79 H35         6.8990    2.6000    2.2610 h1        1 MOL      0.150891
     80 H36         5.9510    1.5840    3.4590 h1        1 MOL      0.150891
     81 N9          3.9020    2.5780    1.4640 n         1 MOL     -0.982080
     82 C25         2.7430    3.4190    1.1320 c3        1 MOL      0.642818
     83 C26         1.4660    2.5780    1.0050 c         1 MOL      0.477210
     84 O13         1.5150    1.5620    0.3670 o         1 MOL     -0.791298
     85 C27         2.9380    4.2470   -0.1590 c3        1 MOL     -0.243843
     86 C28         4.2990    4.9920   -0.2860 ca        1 MOL     -0.100922
     87 C29         5.4630    4.4710   -0.8070 ca        1 MOL      0.033291
     88 C30         4.3230    6.3150    0.1860 ca        1 MOL      0.033291
     89 C31         6.5340    5.2910   -1.0880 ca        1 MOL     -0.451482
     90 C32         5.4880    7.1280    0.0040 ca        1 MOL     -0.451482
     91 C33         6.6190    6.6230   -0.6330 ca        1 MOL      0.543318
     92 O14         7.5770    7.4350   -1.0070 oh        1 MOL     -0.489175
     93 H37         3.9740    1.6950    0.9720 hn        1 MOL      0.611742
     94 H38         2.5300    4.1080    1.9510 h1        1 MOL     -0.052229
     95 H39         2.1010    4.9430   -0.2140 hc        1 MOL      0.064301
     96 H40         2.9100    3.5840   -1.0210 hc        1 MOL      0.064301
     97 H41         5.4310    3.4640   -1.1840 ha        1 MOL      0.081198
     98 H42         3.4590    6.7600    0.6560 ha        1 MOL      0.081198
     99 H43         7.3480    4.8340   -1.6270 ha        1 MOL      0.171596
    100 H44         5.5150    8.1170    0.4440 ha        1 MOL      0.171596
    101 H45         7.3100    8.3390   -0.7910 ho        1 MOL      0.345079
    102 N10         0.3520    3.1230    1.4270 n         1 MOL     -0.479104
    103 C34        -1.0130    2.5680    1.1840 c3        1 MOL     -0.009376
    104 C35        -1.9900    3.5090    0.4700 c         1 MOL      0.495020
    105 O15        -2.1310    4.6520    0.8300 o         1 MOL     -0.538579
    106 C36        -1.6690    1.8860    2.4070 c3        1 MOL     -0.022622
    107 C37        -1.9250    2.9110    3.6030 c3        1 MOL      0.000331
    108 C38        -0.8130    0.7190    2.9770 c3        1 MOL     -0.264089
    109 C39        -2.8850    2.3990    4.7150 c3        1 MOL     -0.243795
    110 H46         0.4020    4.0240    1.8830 hn        1 MOL      0.288059
    111 H47        -0.9080    1.6830    0.5470 h1        1 MOL      0.213889
    112 H48        -2.6010    1.4460    2.0520 hc        1 MOL     -0.016620
    113 H49        -2.3860    3.8400    3.2600 hc        1 MOL      0.040626
    114 H50        -0.9880    3.1990    4.0670 hc        1 MOL      0.040626
    115 H51        -1.2820   -0.1050    2.4260 hc        1 MOL      0.112346
    116 H52         0.2370    0.8020    2.6960 hc        1 MOL      0.112346
    117 H53        -1.0470    0.6250    4.0350 hc        1 MOL      0.112346
    118 H54        -3.2440    3.3160    5.1840 hc        1 MOL      0.063141
    119 H55        -3.5980    1.8380    4.1160 hc        1 MOL      0.063141
    120 H56        -2.4970    1.7700    5.5230 hc        1 MOL      0.063141
    121 N11        -2.6160    2.9880   -0.5550 n         1 MOL     -0.252475
    122 C40        -3.6950    3.6990   -1.3320 c3        1 MOL      0.091896
    123 C41        -5.1210    3.5880   -0.7370 c         1 MOL      0.376361
    124 O16        -5.2660    2.9390    0.3000 o         1 MOL     -0.325832
    125 C42        -3.5490    3.1380   -2.7110 c3        1 MOL     -0.096909
    126 O17        -4.1420    1.8580   -2.6050 oh        1 MOL     -0.392116
    127 H57        -2.3510    2.0440   -0.8070 hn        1 MOL      0.079502
    128 H58        -3.3840    4.7380   -1.4170 h1        1 MOL      0.073929
    129 H59        -2.5100    3.0200   -3.0270 h1        1 MOL      0.075582
    130 H60        -4.0910    3.8700   -3.3040 h1        1 MOL      0.075582
    131 H61        -4.0360    1.4990   -3.4810 ho        1 MOL      0.377321
    132 N12        -6.1260    4.2520   -1.3180 n         1 MOL     -0.475549
    133 C43        -7.4440    4.1120   -0.6330 c3        1 MOL      0.124951
    134 C44        -7.9720    2.6730   -0.8060 c         1 MOL      0.451824
    135 O18        -8.5080    2.0950    0.1290 o         1 MOL     -0.468340
    136 C45        -8.4160    5.2430   -1.0400 c3        1 MOL     -0.312132
    137 H62        -5.9320    4.7880   -2.1630 hn        1 MOL      0.336675
    138 H63        -7.2980    4.2990    0.4320 h1        1 MOL      0.124559
    139 H64        -9.1460    5.2910   -0.2320 hc        1 MOL      0.097978
    140 H65        -7.9450    6.2050   -1.2390 hc        1 MOL      0.097978
    141 H66        -8.8460    5.1090   -2.0380 hc        1 MOL      0.097978
    142 N13        -7.6790    2.0500   -1.9460 n         1 MOL     -0.409474
    143 C46        -7.8390    0.6530   -2.3720 c3        1 MOL      0.234770
    144 C47        -7.1980   -0.2860   -1.3320 c         1 MOL      0.312300
    145 O19        -7.8370   -1.1490   -0.7240 o         1 MOL     -0.528295
    146 C48        -7.1190    0.4240   -3.7290 c3        1 MOL     -0.407276
    147 H67        -7.2010    2.6080   -2.6470 hn        1 MOL      0.251789
    148 H68        -8.9070    0.4570   -2.5130 h1        1 MOL      0.074808
    149 H69        -7.2320    1.2150   -4.4770 hc        1 MOL      0.112638
    150 H70        -6.0410    0.3140   -3.6390 hc        1 MOL      0.112638
    151 H71        -7.4600   -0.5500   -4.0690 hc        1 MOL      0.112638
    152 N14        -5.9680   -0.0730   -0.8400 n         1 MOL     -0.016200
    153 C49        -5.3460   -0.9360    0.1550 c3        1 MOL     -0.049215
    154 C50        -5.9330   -0.6990    1.5210 c         1 MOL      0.450187
    155 O20        -6.1190   -1.6110    2.3130 o         1 MOL     -0.535254
    156 C51        -3.8640   -0.5840    0.0650 c3        1 MOL     -0.113813
    157 C52        -3.0970   -1.1720   -1.1630 c3        1 MOL      0.021506
    158 C53        -1.6490   -0.7750   -1.0380 c         1 MOL      0.656852
    159 O21        -0.8610   -1.4960   -0.4010 o         1 MOL     -0.702125
    160 O22        -1.1780    0.3580   -1.4090 o         1 MOL     -0.702125
    161 H72        -5.4510    0.7250   -1.1730 hn        1 MOL     -0.133294
    162 H73        -5.4640   -1.9740   -0.1410 h1        1 MOL      0.088662
    163 H74        -3.3490   -0.9860    0.9380 hc        1 MOL      0.122261
    164 H75        -3.7560    0.5030    0.0570 hc        1 MOL      0.122261
    165 H76        -3.4830   -0.7330   -2.0850 hc        1 MOL     -0.026556
    166 H77        -3.2730   -2.2300   -1.3180 hc        1 MOL     -0.026556
    167 N15        -6.2580    0.6060    1.8010 n         1 MOL     -0.041215
    168 C54        -6.9020    0.9210    3.1000 c3        1 MOL     -0.186993
    169 H78        -6.1370    1.0060    3.8720 h1        1 MOL      0.083928
    170 H79        -7.4430    1.8640    3.0190 h1        1 MOL      0.083928
    171 H80        -7.5970    0.1240    3.3640 h1        1 MOL      0.083928
    172 H81        -6.0550    1.3460    1.1430 hn        1 MOL      0.082313
    173 Ca1         1.2520   -0.4530   -1.3640 Ca        1 MOL      1.815941
    174 O23         0.5420    1.8780   -2.6520 oh        1 MOL     -0.832967
    175 H82         0.5480    2.8290   -2.7170 ho        1 MOL      0.400802
    176 H83        -0.3710    1.6620   -2.4440 ho        1 MOL      0.400802
    177 O24        -0.1730   -2.0910   -3.2460 oh        1 MOL     -0.832967
    178 H84        -0.6730   -1.7420   -3.9760 ho        1 MOL      0.400802
    179 H85        -0.4050   -3.0140   -3.2030 ho        1 MOL      0.400802
    180 O25         2.3570   -0.1320   -3.8690 oh        1 MOL     -0.832967
    181 H86         2.6090   -1.0330   -3.6820 ho        1 MOL      0.400802
    182 H87         3.0540    0.1960   -4.4380 ho        1 MOL      0.400802
@<TRIPOS>BOND
     1    1    2 1   
     2    1    4 1   
     3    1    5 1   
     4    1    6 1   
     5    2    3 2   
     6    2    7 1   
     7    7    8 1   
     8    7   15 1   
     9    8    9 1   
    10    8   11 1   
    11    8   16 1   
    12    9   10 2   
    13    9   19 1   
    14   11   12 1   
    15   11   17 1   
    16   11   18 1   
    17   12   13 1   
    18   12   14 1   
    19   19   20 1   
    20   19   28 1   
    21   20   21 1   
    22   20   23 1   
    23   20   29 1   
    24   21   22 2   
    25   21   41 1   
    26   23   24 1   
    27   23   30 1   
    28   23   31 1   
    29   24   25 1   
    30   24   32 1   
    31   24   33 1   
    32   25   26 1   
    33   25   34 1   
    34   25   35 1   
    35   26   27 1   
    36   26   36 1   
    37   26   37 1   
    38   27   38 1   
    39   27   39 1   
    40   27   40 1   
    41   41   42 1   
    42   41   49 1   
    43   42   43 1   
    44   42   45 1   
    45   42   50 1   
    46   43   44 2   
    47   43   53 1   
    48   45   46 1   
    49   45   51 1   
    50   45   52 1   
    51   46   47 1   
    52   46   48 1   
    53   53   54 1   
    54   53   57 1   
    55   54   55 1   
    56   54   58 1   
    57   54   59 1   
    58   55   56 2   
    59   55   60 1   
    60   60   61 1   
    61   60   68 1   
    62   61   62 1   
    63   61   64 1   
    64   61   69 1   
    65   62   63 2   
    66   62   74 1   
    67   64   65 1   
    68   64   70 1   
    69   64   71 1   
    70   65   66 1   
    71   65   67 2   
    72   66   72 1   
    73   66   73 1   
    74   74   75 1   
    75   74   78 1   
    76   75   76 1   
    77   75   79 1   
    78   75   80 1   
    79   76   77 2   
    80   76   81 1   
    81   81   82 1   
    82   81   93 1   
    83   82   83 1   
    84   82   85 1   
    85   82   94 1   
    86   83   84 2   
    87   83  102 1   
    88   85   86 1   
    89   85   95 1   
    90   85   96 1   
    91   86   87 ar  
    92   86   88 ar  
    93   87   89 ar  
    94   87   97 1   
    95   88   90 ar  
    96   88   98 1   
    97   89   91 ar  
    98   89   99 1   
    99   90   91 ar  
   100   90  100 1   
   101   91   92 1   
   102   92  101 1   
   103  102  103 1   
   104  102  110 1   
   105  103  104 1   
   106  103  106 1   
   107  103  111 1   
   108  104  105 2   
   109  104  121 1   
   110  106  107 1   
   111  106  108 1   
   112  106  112 1   
   113  107  109 1   
   114  107  113 1   
   115  107  114 1   
   116  108  115 1   
   117  108  116 1   
   118  108  117 1   
   119  109  118 1   
   120  109  119 1   
   121  109  120 1   
   122  121  122 1   
   123  121  127 1   
   124  122  123 1   
   125  122  125 1   
   126  122  128 1   
   127  123  124 2   
   128  123  132 1   
   129  125  126 1   
   130  125  129 1   
   131  125  130 1   
   132  126  131 1   
   133  132  133 1   
   134  132  137 1   
   135  133  134 1   
   136  133  136 1   
   137  133  138 1   
   138  134  135 2   
   139  134  142 1   
   140  136  139 1   
   141  136  140 1   
   142  136  141 1   
   143  142  143 1   
   144  142  147 1   
   145  143  144 1   
   146  143  146 1   
   147  143  148 1   
   148  144  145 2   
   149  144  152 1   
   150  146  149 1   
   151  146  150 1   
   152  146  151 1   
   153  152  153 1   
   154  152  161 1   
   155  153  154 1   
   156  153  156 1   
   157  153  162 1   
   158  154  155 2   
   159  154  167 1   
   160  156  157 1   
   161  156  163 1   
   162  156  164 1   
   163  157  158 1   
   164  157  165 1   
   165  157  166 1   
   166  158  159 1   
   167  158  160 1   
   168  167  168 1   
   169  167  172 1   
   170  168  169 1   
   171  168  170 1   
   172  168  171 1   
   173  174  175 1   
   174  174  176 1   
   175  177  178 1   
   176  177  179 1   
   177  180  181 1   
   178  180  182 1   
@<TRIPOS>SUBSTRUCTURE
     1 MOL         1 TEMP              0 ****  ****    0 ROOT
