@<TRIPOS>MOLECULE
MOL
  186   183     1     0     0
SMALL
resp


@<TRIPOS>ATOM
      1 C1         -0.4860    2.2650    6.4000 c3        1 MOL     -0.271809
      2 C2         -0.7140    2.3880    4.9170 c         1 MOL      0.827173
      3 O1          0.2040    2.6630    4.1780 o         1 MOL     -0.644386
      4 H1          0.2620    2.9940    6.7140 hc        1 MOL      0.053702
      5 H2         -1.4200    2.4530    6.9290 hc        1 MOL      0.053702
      6 H3         -0.1330    1.2610    6.6320 hc        1 MOL      0.053702
      7 N1         -1.9170    2.0980    4.4370 n         1 MOL     -0.720137
      8 C3         -2.4020    2.0510    3.0540 c3        1 MOL     -0.007734
      9 C4         -2.8280    3.4200    2.6090 c         1 MOL      0.815047
     10 O2         -3.6640    4.0440    3.1910 o         1 MOL     -0.616086
     11 C5         -3.5450    1.0400    3.0760 c3        1 MOL     -0.345495
     12 C6         -4.1640    0.8900    1.6480 c         1 MOL      0.770326
     13 O3         -5.1490    0.0930    1.5380 o         1 MOL     -0.647963
     14 O4         -3.6200    1.4240    0.6340 o         1 MOL     -0.647963
     15 H4         -2.5690    1.9030    5.1890 hn        1 MOL      0.351918
     16 H5         -1.6540    1.6340    2.3840 h1        1 MOL      0.087961
     17 H6         -4.3300    1.3140    3.7790 hc        1 MOL      0.102626
     18 H7         -3.1290    0.0920    3.4260 hc        1 MOL      0.102626
     19 N2         -2.1800    3.8700    1.5550 n         1 MOL     -0.636539
     20 C7         -2.3340    5.2350    0.8650 c3        1 MOL      0.103379
     21 C8         -3.3340    5.2670   -0.2460 c         1 MOL      0.446476
     22 O5         -3.9290    6.3450   -0.4740 o         1 MOL     -0.585143
     23 C9         -1.0040    5.8410    0.3090 c3        1 MOL      0.318595
     24 C10         0.1550    5.4310    1.1950 c3        1 MOL      0.022748
     25 C11        -1.0180    7.3170    0.1220 c3        1 MOL     -0.243790
     26 C12         1.5600    5.9000    0.7480 c3        1 MOL     -0.214586
     27 H8         -1.5660    3.2020    1.1110 hn        1 MOL      0.308861
     28 H9         -2.6670    5.8570    1.7060 h1        1 MOL      0.038784
     29 H10        -0.8850    5.3890   -0.6700 hc        1 MOL     -0.039800
     30 H11         0.3210    4.3500    1.0670 hc        1 MOL      0.016711
     31 H12        -0.0680    5.7390    2.2100 hc        1 MOL      0.016711
     32 H13        -0.8350    7.7830    1.0870 hc        1 MOL      0.028681
     33 H14        -0.2450    7.6030   -0.6020 hc        1 MOL      0.028681
     34 H15        -1.9770    7.6730   -0.2210 hc        1 MOL      0.028681
     35 H16         1.8320    5.6030   -0.2580 hc        1 MOL      0.047252
     36 H17         1.5800    6.9870    0.6390 hc        1 MOL      0.047252
     37 H18         2.2100    5.5920    1.5620 hc        1 MOL      0.047252
     38 N3         -3.6850    4.1490   -0.8830 n         1 MOL     -0.233664
     39 C13        -4.6840    4.0220   -1.9900 c3        1 MOL      0.204077
     40 C14        -6.0060    3.3190   -1.5990 c         1 MOL      0.386231
     41 O6         -7.0270    3.4340   -2.2330 o         1 MOL     -0.509164
     42 C15        -4.0730    3.6100   -3.3520 c3        1 MOL     -0.279172
     43 C16        -3.8390    2.1190   -3.4850 c         1 MOL      0.839445
     44 O7         -4.0010    1.3480   -2.5050 o         1 MOL     -0.734346
     45 O8         -3.5910    1.6160   -4.6090 o         1 MOL     -0.734346
     46 H19        -3.2870    3.2760   -0.5890 hn        1 MOL      0.113582
     47 H20        -5.0700    5.0130   -2.2290 h1        1 MOL      0.024471
     48 H21        -3.1400    4.1330   -3.5580 hc        1 MOL      0.052468
     49 H22        -4.7890    3.8050   -4.1570 hc        1 MOL      0.052468
     50 N4         -6.0120    2.5350   -0.4700 n         1 MOL     -0.225269
     51 C17        -7.2770    2.0740    0.1130 c3        1 MOL     -0.060130
     52 C18        -7.8330    0.7310   -0.3670 c         1 MOL      0.458991
     53 O9         -9.0500    0.5740   -0.6010 o         1 MOL     -0.614000
     54 H23        -5.1420    2.5060    0.0490 hn        1 MOL      0.154522
     55 H24        -8.1120    2.7760    0.0370 h1        1 MOL      0.051844
     56 H25        -7.0840    1.9140    1.1680 h1        1 MOL      0.051844
     57 N5         -6.9870   -0.2580   -0.6960 n         1 MOL      0.018872
     58 C19        -7.4150   -1.5310   -1.1780 c3        1 MOL     -0.110388
     59 C20        -7.4150   -2.5730   -0.0330 c         1 MOL      0.462562
     60 O10        -7.8350   -3.7370   -0.2670 o         1 MOL     -0.543386
     61 C21        -6.4580   -1.9530   -2.3530 c3        1 MOL     -0.202503
     62 C22        -4.9760   -1.7560   -2.1240 c         1 MOL      0.774026
     63 O11        -4.4160   -1.8150   -1.0050 o         1 MOL     -0.672829
     64 O12        -4.3430   -1.5470   -3.1140 o         1 MOL     -0.672829
     65 H26        -6.0040   -0.0370   -0.5730 hn        1 MOL      0.058904
     66 H27        -8.4200   -1.5000   -1.6180 h1        1 MOL      0.122895
     67 H28        -6.7460   -1.4690   -3.2900 hc        1 MOL      0.056740
     68 H29        -6.6240   -3.0260   -2.4690 hc        1 MOL      0.056740
     69 N6         -7.0980   -2.1000    1.2100 n         1 MOL     -0.360332
     70 C23        -6.8550   -3.0090    2.3240 c3        1 MOL     -0.071352
     71 C24        -5.5620   -3.7940    2.2120 c         1 MOL      0.470486
     72 O13        -5.4530   -4.7420    2.9780 o         1 MOL     -0.588516
     73 H30        -6.7050   -1.1740    1.2220 hn        1 MOL      0.222581
     74 H31        -7.6400   -3.7510    2.4640 h1        1 MOL      0.080135
     75 H32        -6.6540   -2.4820    3.2530 h1        1 MOL      0.080135
     76 N7         -4.5680   -3.2800    1.4340 n         1 MOL     -0.113501
     77 C25        -3.3120   -4.0080    1.3660 c3        1 MOL     -0.086563
     78 C26        -2.1770   -2.9890    1.3150 c         1 MOL      0.606236
     79 O14        -2.3460   -1.7770    1.0050 o         1 MOL     -0.651747
     80 C27        -3.2940   -4.7240   -0.0170 c3        1 MOL      0.188865
     81 C28        -4.2640   -5.7930   -0.3600 c3        1 MOL      0.020173
     82 C29        -4.2050   -6.4330   -1.7270 c         1 MOL      0.606450
     83 N8         -4.7940   -7.6150   -1.8500 n         1 MOL     -0.821500
     84 O15        -3.6990   -5.8620   -2.7050 o         1 MOL     -0.550176
     85 H33        -4.7570   -2.4100    0.9560 hn        1 MOL      0.113457
     86 H34        -3.3270   -4.7280    2.1830 h1        1 MOL      0.056634
     87 H35        -2.3780   -5.2920   -0.1590 hc        1 MOL     -0.068720
     88 H36        -3.3190   -3.9900   -0.8300 hc        1 MOL     -0.068720
     89 H37        -5.2110   -5.2740   -0.2310 hc        1 MOL     -0.015387
     90 H38        -4.2420   -6.5510    0.4200 hc        1 MOL     -0.015387
     91 H39        -5.2910   -8.1030   -1.1200 hn        1 MOL      0.361627
     92 H40        -4.7950   -7.9340   -2.8110 hn        1 MOL      0.361627
     93 N9         -0.9810   -3.5290    1.5370 n         1 MOL     -0.497951
     94 C30         0.3080   -2.7550    1.5180 c3        1 MOL      0.036839
     95 C31         1.3070   -3.3550    0.5960 c         1 MOL      0.503037
     96 O16         1.8290   -4.4430    0.9010 o         1 MOL     -0.570125
     97 C32         0.7810   -2.5730    2.9390 c3        1 MOL      0.067571
     98 C33         2.2270   -2.1310    3.1990 c3        1 MOL     -0.267685
     99 C34        -0.0620   -1.5090    3.7100 c3        1 MOL     -0.267685
    100 H41        -0.9810   -4.5150    1.7820 hn        1 MOL      0.300820
    101 H42         0.1340   -1.7750    1.0590 h1        1 MOL      0.146227
    102 H43         0.5950   -3.5080    3.4900 hc        1 MOL      0.012277
    103 H44         2.4550   -1.9570    4.2550 hc        1 MOL      0.072618
    104 H45         3.0060   -2.7920    2.8380 hc        1 MOL      0.072618
    105 H46         2.3050   -1.2010    2.6380 hc        1 MOL      0.072618
    106 H47        -1.0540   -1.9280    3.8480 hc        1 MOL      0.072618
    107 H48         0.3560   -1.3100    4.6930 hc        1 MOL      0.072618
    108 H49        -0.1190   -0.5640    3.1660 hc        1 MOL      0.072618
    109 N10         1.5790   -2.7360   -0.5430 n         1 MOL     -0.435593
    110 C35         2.8350   -2.9720   -1.3010 c3        1 MOL      0.138419
    111 C36         4.0060   -2.2370   -0.5870 c         1 MOL      0.270508
    112 O17         3.8080   -1.4140    0.3010 o         1 MOL     -0.153385
    113 C37         2.6840   -2.5800   -2.8320 c3        1 MOL     -0.580017
    114 C38         2.6190   -1.0910   -3.0610 c         1 MOL      0.758703
    115 N11         1.4360   -0.4450   -3.1690 n         1 MOL     -0.884700
    116 O18         3.6090   -0.3940   -3.2600 o         1 MOL     -0.554026
    117 H50         1.0450   -1.8930   -0.7080 hn        1 MOL      0.348223
    118 H51         2.9990   -4.0420   -1.1920 h1        1 MOL      0.070251
    119 H52         1.7930   -3.0750   -3.2270 hc        1 MOL      0.190520
    120 H53         3.5490   -2.9150   -3.4010 hc        1 MOL      0.190520
    121 H54         0.5740   -0.8480   -2.8360 hn        1 MOL      0.401783
    122 H55         1.4680    0.5400   -3.3670 hn        1 MOL      0.401783
    123 N12         5.2630   -2.6810   -0.9000 n         1 MOL     -0.458041
    124 C39         6.4970   -2.1470   -0.2610 c3        1 MOL      0.014125
    125 C40         6.6610   -0.6300   -0.4270 c         1 MOL      0.787714
    126 O19         7.0960    0.0510    0.4680 o         1 MOL     -0.548360
    127 C41         7.7140   -2.8120   -0.8540 c3        1 MOL     -0.107247
    128 C42         8.9150   -2.6100    0.0160 ca        1 MOL     -0.000283
    129 C43         9.0690   -3.1510    1.3240 ca        1 MOL     -0.172186
    130 C44        10.0030   -1.8890   -0.4950 ca        1 MOL     -0.172186
    131 C45        10.2410   -2.8700    2.0520 ca        1 MOL     -0.253304
    132 C46        11.1870   -1.6610    0.2310 ca        1 MOL     -0.253304
    133 C47        11.3260   -2.1320    1.5260 ca        1 MOL      0.382893
    134 O20        12.4820   -1.8370    2.1700 oh        1 MOL     -0.557576
    135 H56         5.3410   -3.3790   -1.6310 hn        1 MOL      0.292217
    136 H57         6.3710   -2.3030    0.8030 h1        1 MOL      0.091769
    137 H58         7.9870   -2.4070   -1.8270 hc        1 MOL      0.060285
    138 H59         7.5110   -3.8720   -1.0230 hc        1 MOL      0.060285
    139 H60         8.2440   -3.7270    1.7130 ha        1 MOL      0.146144
    140 H61         9.9050   -1.4540   -1.4720 ha        1 MOL      0.146144
    141 H62        10.3430   -3.3370    3.0260 ha        1 MOL      0.136569
    142 H63        11.9430   -1.0500   -0.2460 ha        1 MOL      0.136569
    143 H64        12.9400   -1.1700    1.6620 ho        1 MOL      0.398316
    144 N13         6.2600   -0.0160   -1.5670 n         1 MOL     -0.554237
    145 C48         6.2480    1.4520   -1.7910 c3        1 MOL      0.122261
    146 C49         5.4160    2.1290   -0.6560 c         1 MOL      0.332602
    147 O21         5.7350    3.3200   -0.3850 o         1 MOL     -0.511858
    148 C50         5.8380    1.7430   -3.2450 c3        1 MOL      0.053288
    149 C51         6.5880    2.9580   -3.7550 c3        1 MOL     -0.312615
    150 C52         8.0840    2.7370   -3.9370 c         1 MOL      0.811575
    151 O22         8.9400    3.2620   -3.2220 o         1 MOL     -0.769937
    152 O23         8.3790    2.0800   -4.9510 o         1 MOL     -0.769937
    153 H65         5.6610   -0.5520   -2.1790 hn        1 MOL      0.221056
    154 H66         7.2890    1.7660   -1.6980 h1        1 MOL      0.094837
    155 H67         4.7590    1.8430   -3.3620 hc        1 MOL      0.009130
    156 H68         6.1320    0.8090   -3.7360 hc        1 MOL      0.009130
    157 H69         6.3550    3.7300   -3.0250 hc        1 MOL      0.041943
    158 H70         6.2270    3.2320   -4.7500 hc        1 MOL      0.041943
    159 N14         4.5170    1.4490    0.1200 n         1 MOL     -0.096739
    160 C53         3.7120    1.9460    1.1970 c3        1 MOL      0.025632
    161 C54         4.2970    1.5950    2.5600 c         1 MOL      0.416579
    162 O24         4.4000    2.3940    3.4940 o         1 MOL     -0.527980
    163 C55         2.2720    1.4210    1.0870 c3        1 MOL      0.192535
    164 C56         1.6800    1.6830   -0.2730 c3        1 MOL      0.096812
    165 C57         0.2670    1.1740   -0.3850 c         1 MOL      0.630008
    166 O25        -0.7070    1.9480   -0.3520 o         1 MOL     -0.748667
    167 O26         0.0530   -0.1150   -0.5160 o         1 MOL     -0.748667
    168 H71         4.4770    0.4470   -0.0320 hn        1 MOL      0.073980
    169 H72         3.6020    3.0390    1.2240 h1        1 MOL      0.039498
    170 H73         1.7340    1.9550    1.8720 hc        1 MOL     -0.024514
    171 H74         2.2050    0.3440    1.2290 hc        1 MOL     -0.024514
    172 H75         2.2920    1.1590   -1.0140 hc        1 MOL     -0.054183
    173 H76         1.7560    2.7280   -0.5610 hc        1 MOL     -0.054183
    174 N15         5.0230    0.4300    2.6150 n         1 MOL     -0.028933
    175 C58         5.7070   -0.0250    3.8610 c3        1 MOL     -0.448003
    176 H77         6.4060    0.7430    4.1920 h1        1 MOL      0.141138
    177 H78         4.9650   -0.2010    4.6400 h1        1 MOL      0.141138
    178 H79         6.2500   -0.9480    3.6620 h1        1 MOL      0.141138
    179 H80         5.1350   -0.1710    1.8100 hn        1 MOL      0.001928
    180 Ca1        -2.4670   -0.1560   -1.0860 Ca        1 MOL      1.729266
    181 O27        -1.2160   -2.1930   -2.3350 oh        1 MOL     -0.813189
    182 H81        -1.3160   -2.1340   -3.2860 ho        1 MOL      0.384695
    183 H82        -1.1970   -3.1300   -2.1550 ho        1 MOL      0.384695
    184 O28        -1.3070    0.5980   -3.3720 oh        1 MOL     -0.813189
    185 H83        -2.0090    0.7990   -3.9970 ho        1 MOL      0.384695
    186 H84        -0.5260    0.9750   -3.7780 ho        1 MOL      0.384695
@<TRIPOS>BOND
     1    1    2 1   
     2    1    4 1   
     3    1    5 1   
     4    1    6 1   
     5    2    3 2   
     6    2    7 1   
     7    7    8 1   
     8    7   15 1   
     9    8    9 1   
    10    8   11 1   
    11    8   16 1   
    12    9   10 2   
    13    9   19 1   
    14   11   12 1   
    15   11   17 1   
    16   11   18 1   
    17   12   13 1   
    18   12   14 1   
    19   19   20 1   
    20   19   27 1   
    21   20   21 1   
    22   20   23 1   
    23   20   28 1   
    24   21   22 2   
    25   21   38 1   
    26   23   24 1   
    27   23   25 1   
    28   23   29 1   
    29   24   26 1   
    30   24   30 1   
    31   24   31 1   
    32   25   32 1   
    33   25   33 1   
    34   25   34 1   
    35   26   35 1   
    36   26   36 1   
    37   26   37 1   
    38   38   39 1   
    39   38   46 1   
    40   39   40 1   
    41   39   42 1   
    42   39   47 1   
    43   40   41 2   
    44   40   50 1   
    45   42   43 1   
    46   42   48 1   
    47   42   49 1   
    48   43   44 1   
    49   43   45 1   
    50   50   51 1   
    51   50   54 1   
    52   51   52 1   
    53   51   55 1   
    54   51   56 1   
    55   52   53 2   
    56   52   57 1   
    57   57   58 1   
    58   57   65 1   
    59   58   59 1   
    60   58   61 1   
    61   58   66 1   
    62   59   60 2   
    63   59   69 1   
    64   61   62 1   
    65   61   67 1   
    66   61   68 1   
    67   62   63 1   
    68   62   64 1   
    69   69   70 1   
    70   69   73 1   
    71   70   71 1   
    72   70   74 1   
    73   70   75 1   
    74   71   72 2   
    75   71   76 1   
    76   76   77 1   
    77   76   85 1   
    78   77   78 1   
    79   77   80 1   
    80   77   86 1   
    81   78   79 2   
    82   78   93 1   
    83   80   81 1   
    84   80   87 1   
    85   80   88 1   
    86   81   82 1   
    87   81   89 1   
    88   81   90 1   
    89   82   83 1   
    90   82   84 2   
    91   83   91 1   
    92   83   92 1   
    93   93   94 1   
    94   93  100 1   
    95   94   95 1   
    96   94   97 1   
    97   94  101 1   
    98   95   96 2   
    99   95  109 1   
   100   97   98 1   
   101   97   99 1   
   102   97  102 1   
   103   98  103 1   
   104   98  104 1   
   105   98  105 1   
   106   99  106 1   
   107   99  107 1   
   108   99  108 1   
   109  109  110 1   
   110  109  117 1   
   111  110  111 1   
   112  110  113 1   
   113  110  118 1   
   114  111  112 2   
   115  111  123 1   
   116  113  114 1   
   117  113  119 1   
   118  113  120 1   
   119  114  115 1   
   120  114  116 2   
   121  115  121 1   
   122  115  122 1   
   123  123  124 1   
   124  123  135 1   
   125  124  125 1   
   126  124  127 1   
   127  124  136 1   
   128  125  126 2   
   129  125  144 1   
   130  127  128 1   
   131  127  137 1   
   132  127  138 1   
   133  128  129 ar  
   134  128  130 ar  
   135  129  131 ar  
   136  129  139 1   
   137  130  132 ar  
   138  130  140 1   
   139  131  133 ar  
   140  131  141 1   
   141  132  133 ar  
   142  132  142 1   
   143  133  134 1   
   144  134  143 1   
   145  144  145 1   
   146  144  153 1   
   147  145  146 1   
   148  145  148 1   
   149  145  154 1   
   150  146  147 2   
   151  146  159 1   
   152  148  149 1   
   153  148  155 1   
   154  148  156 1   
   155  149  150 1   
   156  149  157 1   
   157  149  158 1   
   158  150  151 1   
   159  150  152 1   
   160  159  160 1   
   161  159  168 1   
   162  160  161 1   
   163  160  163 1   
   164  160  169 1   
   165  161  162 2   
   166  161  174 1   
   167  163  164 1   
   168  163  170 1   
   169  163  171 1   
   170  164  165 1   
   171  164  172 1   
   172  164  173 1   
   173  165  166 1   
   174  165  167 1   
   175  174  175 1   
   176  174  179 1   
   177  175  176 1   
   178  175  177 1   
   179  175  178 1   
   180  181  182 1   
   181  181  183 1   
   182  184  185 1   
   183  184  186 1   
@<TRIPOS>SUBSTRUCTURE
     1 MOL         1 TEMP              0 ****  ****    0 ROOT
