@<TRIPOS>MOLECULE
MOL
  189   185     1     0     0
SMALL
resp


@<TRIPOS>ATOM
      1 C1         -0.0980    2.8690   -5.0470 c3        1 MOL     -0.296474
      2 C2          0.3520    2.5740   -3.6160 c         1 MOL      0.745911
      3 O1         -0.4240    2.7650   -2.7090 o         1 MOL     -0.625870
      4 H1         -1.0470    3.4050   -5.0260 hc        1 MOL      0.068878
      5 H2          0.6530    3.4810   -5.5460 hc        1 MOL      0.068878
      6 H3         -0.2230    1.9320   -5.5910 hc        1 MOL      0.068878
      7 N1          1.6510    2.2390   -3.4560 n         1 MOL     -0.643613
      8 C3          2.2270    1.7840   -2.2040 c3        1 MOL      0.464400
      9 C4          2.7160    3.0130   -1.3130 c         1 MOL      0.150103
     10 O2          3.8100    3.5650   -1.6210 o         1 MOL     -0.468996
     11 C5          3.3730    0.8010   -2.5160 c3        1 MOL     -0.393047
     12 C6          4.0740    0.2220   -1.2760 c         1 MOL      0.832983
     13 O3          3.5060    0.3840   -0.1350 o         1 MOL     -0.669423
     14 O4          5.2030   -0.2420   -1.4560 o         1 MOL     -0.669423
     15 H4          2.2240    2.0950   -4.2800 hn        1 MOL      0.321832
     16 H5          1.4470    1.2710   -1.6450 h1        1 MOL     -0.080305
     17 H6          4.0990    1.3190   -3.1440 hc        1 MOL      0.092709
     18 H7          2.9620   -0.0590   -3.0380 hc        1 MOL      0.092709
     19 N2          1.9100    3.5320   -0.3790 n         1 MOL     -0.009619
     20 C7          1.9600    4.9230    0.1740 c3        1 MOL     -0.035315
     21 C8          2.9540    4.9550    1.3110 c         1 MOL      0.439477
     22 O5          3.1930    6.0550    1.7520 o         1 MOL     -0.568167
     23 C9          0.5870    5.4310    0.4490 c3        1 MOL     -0.185516
     24 C10        -0.1860    6.2020   -0.6780 c3        1 MOL      0.140666
     25 C11         0.2010    7.5780   -0.9430 c3        1 MOL     -0.316445
     26 C12        -0.6580    8.2780   -2.0320 c3        1 MOL     -0.039919
     27 N3         -0.4760    7.6370   -3.3540 n4        1 MOL     -0.280989
     28 H8          1.0790    2.9730   -0.2350 hn        1 MOL      0.164408
     29 H9          2.5140    5.5410   -0.5310 h1        1 MOL      0.089065
     30 H10         0.6800    6.2170    1.1990 hc        1 MOL      0.091209
     31 H11        -0.0100    4.6980    0.9840 hc        1 MOL      0.091209
     32 H12        -1.2640    6.1280   -0.5130 hc        1 MOL      0.017597
     33 H13         0.0230    5.5490   -1.5290 hc        1 MOL      0.017597
     34 H14         1.2770    7.6240   -1.1180 hc        1 MOL      0.129243
     35 H15         0.0360    8.1670   -0.0430 hc        1 MOL      0.129243
     36 H16        -0.4910    9.3360   -2.2250 hx        1 MOL      0.118301
     37 H17        -1.6970    8.2220   -1.7000 hx        1 MOL      0.118301
     38 H18         0.4250    7.8570   -3.7350 hn        1 MOL      0.309543
     39 H19        -0.6370    6.6380   -3.3360 hn        1 MOL      0.309543
     40 H20        -1.1680    7.8670   -4.0610 hn        1 MOL      0.309543
     41 N4          3.3830    3.7950    1.8110 n         1 MOL     -0.106925
     42 C13         4.5240    3.6140    2.7580 c3        1 MOL      0.094700
     43 C14         5.7300    2.9600    2.0420 c         1 MOL      0.303933
     44 O6          6.8490    2.8160    2.6270 o         1 MOL     -0.515392
     45 C15         4.0490    2.8280    4.0110 c3        1 MOL     -0.401282
     46 C16         3.3380    1.4850    3.9290 c         1 MOL      0.754427
     47 O7          2.8310    0.9450    4.9610 o         1 MOL     -0.630655
     48 O8          3.3450    0.8770    2.8490 o         1 MOL     -0.630655
     49 H21         3.0590    2.8960    1.4910 hn        1 MOL      0.060920
     50 H22         4.8530    4.6310    2.9870 h1        1 MOL      0.081826
     51 H23         3.3630    3.4590    4.5780 hc        1 MOL      0.105575
     52 H24         4.9880    2.6170    4.5220 hc        1 MOL      0.105575
     53 N5          5.5880    2.5240    0.7790 n         1 MOL      0.107084
     54 C17         6.6650    2.0080    0.0020 c3        1 MOL     -0.263424
     55 C18         7.2310    0.7720    0.6450 c         1 MOL      0.641685
     56 O9          8.4020    0.5310    0.4710 o         1 MOL     -0.593379
     57 H25         4.6750    2.5310    0.3420 hn        1 MOL     -0.113454
     58 H26         7.4140    2.7990    0.0200 h1        1 MOL      0.115478
     59 H27         6.2690    1.6350   -0.9470 h1        1 MOL      0.115478
     60 N6          6.4240   -0.1350    1.2790 n         1 MOL     -0.284418
     61 C19         6.9350   -1.4120    1.7210 c3        1 MOL     -0.085079
     62 C20         7.1610   -2.5120    0.6330 c         1 MOL      0.411635
     63 O10         7.7680   -3.5580    0.8730 o         1 MOL     -0.574430
     64 C21         6.1430   -1.9480    2.9060 c3        1 MOL     -0.225831
     65 C22         4.6550   -2.1640    2.5990 c         1 MOL      0.694458
     66 O11         4.2220   -2.2090    1.4060 o         1 MOL     -0.666933
     67 O12         3.8480   -2.2840    3.5590 o         1 MOL     -0.666933
     68 H28         5.4230    0.0320    1.2060 hn        1 MOL      0.191281
     69 H29         7.9330   -1.1990    2.0800 h1        1 MOL      0.117173
     70 H30         6.2350   -1.2840    3.7600 hc        1 MOL      0.091407
     71 H31         6.5980   -2.8610    3.2930 hc        1 MOL      0.091407
     72 N7          6.6500   -2.2640   -0.5100 n         1 MOL     -0.105266
     73 C23         6.5880   -3.1970   -1.6960 c3        1 MOL     -0.207875
     74 C24         5.2860   -4.1680   -1.6760 c         1 MOL      0.561636
     75 O13         5.3860   -5.2380   -2.2500 o         1 MOL     -0.564859
     76 H32         6.1630   -1.3840   -0.6040 hn        1 MOL      0.194972
     77 H33         7.4650   -3.8480   -1.6550 h1        1 MOL      0.106081
     78 H34         6.6070   -2.6570   -2.6430 h1        1 MOL      0.106081
     79 N8          4.1840   -3.7520   -1.0530 n         1 MOL     -0.287540
     80 C25         2.8190   -4.3740   -1.2540 c3        1 MOL     -0.126966
     81 C26         1.7660   -3.3360   -1.3620 c         1 MOL      0.699340
     82 O14         1.9130   -2.2920   -0.7280 o         1 MOL     -0.648464
     83 C27         2.4490   -5.4520   -0.2460 c3        1 MOL      0.397839
     84 C28         2.9100   -6.8640   -0.6270 c3        1 MOL     -0.595120
     85 O15         3.0830   -5.1650    0.9930 oh        1 MOL     -0.679477
     86 H35         4.1470   -2.9740   -0.4010 hn        1 MOL      0.192427
     87 H36         2.8660   -4.9270   -2.1930 h1        1 MOL      0.073596
     88 H37         1.3700   -5.5500   -0.0820 h1        1 MOL      0.017284
     89 H38         4.0240   -5.2360    0.8300 ho        1 MOL      0.469161
     90 H39         2.7100   -7.4990    0.2360 hc        1 MOL      0.160931
     91 H40         2.4100   -7.2050   -1.5270 hc        1 MOL      0.160931
     92 H41         3.9900   -6.8220   -0.7890 hc        1 MOL      0.160931
     93 N9          0.6590   -3.6470   -2.0850 n         1 MOL     -0.717289
     94 C29        -0.4800   -2.7520   -2.2120 c3        1 MOL      0.086804
     95 C30        -1.6670   -3.4210   -1.4370 c         1 MOL      0.354258
     96 O16        -2.0940   -4.5390   -1.7990 o         1 MOL     -0.549527
     97 C31        -0.8070   -2.4530   -3.6850 c3        1 MOL      0.194822
     98 C32         0.3450   -1.6990   -4.3880 c3        1 MOL      0.259287
     99 C33        -1.9480   -1.4570   -3.7670 c3        1 MOL     -0.586041
    100 C34         0.2820   -1.8640   -5.9340 c3        1 MOL     -0.178780
    101 H42         0.6100   -4.5500   -2.5470 hn        1 MOL      0.349585
    102 H43        -0.2660   -1.8130   -1.7060 h1        1 MOL      0.153362
    103 H44        -1.0220   -3.3610   -4.2580 hc        1 MOL      0.004409
    104 H45         1.2720   -2.2040   -4.1130 hc        1 MOL     -0.056754
    105 H46         0.4830   -0.6910   -3.9990 hc        1 MOL     -0.056754
    106 H47        -2.9060   -1.7980   -3.3600 hc        1 MOL      0.114572
    107 H48        -1.6250   -0.5610   -3.2300 hc        1 MOL      0.114572
    108 H49        -2.2120   -1.1840   -4.7850 hc        1 MOL      0.114572
    109 H50        -0.6290   -1.4600   -6.3830 hc        1 MOL      0.032567
    110 H51         1.1570   -1.3320   -6.3030 hc        1 MOL      0.032567
    111 H52         0.3220   -2.9110   -6.2480 hc        1 MOL      0.032567
    112 N10        -2.2610   -2.6820   -0.5230 n         1 MOL      0.052521
    113 C35        -3.5470   -3.0120    0.1310 c3        1 MOL      0.043591
    114 C36        -4.7840   -2.4610   -0.5920 c         1 MOL      0.307574
    115 O17        -4.5950   -1.7060   -1.4940 o         1 MOL     -0.307176
    116 C37        -3.5740   -2.5300    1.6310 c3        1 MOL      0.101331
    117 C38        -2.3570   -2.9970    2.4600 c3        1 MOL     -0.409154
    118 O18        -3.6890   -1.1110    1.7900 oh        1 MOL     -0.335156
    119 H53        -1.8690   -1.8020   -0.2380 hn        1 MOL      0.188819
    120 H54        -3.6050   -4.1050    0.1470 h1        1 MOL      0.048345
    121 H55        -4.5120   -2.8850    2.0670 h1        1 MOL     -0.016230
    122 H56        -3.6860   -1.0030    2.7400 ho        1 MOL      0.339582
    123 H57        -2.6410   -3.9470    2.8980 hc        1 MOL      0.099884
    124 H58        -1.4970   -3.0690    1.7980 hc        1 MOL      0.099884
    125 H59        -2.2220   -2.2900    3.2860 hc        1 MOL      0.099884
    126 N11        -6.0540   -2.7930   -0.2940 n         1 MOL     -0.306317
    127 C39        -7.2420   -2.2090   -0.9650 c3        1 MOL     -0.104964
    128 C40        -7.5270   -0.6840   -0.7020 c         1 MOL      0.321537
    129 O19        -8.2080    0.0180   -1.4520 o         1 MOL     -0.493025
    130 C41        -8.5150   -2.9790   -0.3880 c3        1 MOL      0.180763
    131 C42        -8.5800   -4.3300   -0.8610 c3        1 MOL     -0.390692
    132 O20        -8.4940   -2.9670    1.0360 oh        1 MOL     -0.619631
    133 H60        -6.2360   -3.5010    0.4050 hn        1 MOL      0.281502
    134 H61        -7.0970   -2.2430   -2.0390 h1        1 MOL      0.156401
    135 H62        -9.3930   -2.4210   -0.7050 h1        1 MOL      0.078394
    136 H63        -9.3070   -3.3770    1.3460 ho        1 MOL      0.413186
    137 H64        -9.4890   -4.8070   -0.4930 hc        1 MOL      0.119044
    138 H65        -8.6080   -4.4260   -1.9480 hc        1 MOL      0.119044
    139 H66        -7.7520   -4.9000   -0.4640 hc        1 MOL      0.119044
    140 N12        -6.9130   -0.1650    0.3550 n         1 MOL     -0.114039
    141 C43        -6.9930    1.2510    0.8300 c3        1 MOL     -0.017610
    142 C44        -5.8940    2.1260    0.2480 c         1 MOL      0.295503
    143 O21        -6.1450    3.2530   -0.2440 o         1 MOL     -0.478905
    144 C45        -6.9900    1.1890    2.3800 c3        1 MOL     -0.073612
    145 C46        -8.2680    0.5660    3.0260 c3        1 MOL      0.155663
    146 C47        -8.1590    0.7990    4.5450 c3        1 MOL     -0.034556
    147 C48        -9.4130    0.2660    5.2410 c3        1 MOL     -0.009740
    148 N13        -9.4830    0.7500    6.5980 n4        1 MOL     -0.096494
    149 H67        -6.3210   -0.8130    0.8530 hn        1 MOL      0.187877
    150 H68        -7.9440    1.6100    0.4300 h1        1 MOL      0.114518
    151 H69        -6.8650    2.2020    2.7670 hc        1 MOL      0.015009
    152 H70        -6.1990    0.5400    2.7440 hc        1 MOL      0.015009
    153 H71        -8.2420   -0.5150    2.8990 hc        1 MOL     -0.026395
    154 H72        -9.2090    1.0080    2.7010 hc        1 MOL     -0.026395
    155 H73        -8.0980    1.8850    4.6180 hc        1 MOL      0.033277
    156 H74        -7.2180    0.4360    4.9460 hc        1 MOL      0.033277
    157 H75        -9.3030   -0.8130    5.3310 hx        1 MOL      0.072046
    158 H76       -10.3360    0.5490    4.7430 hx        1 MOL      0.072046
    159 H77        -9.3370    1.7420    6.6900 hn        1 MOL      0.191974
    160 H78       -10.3550    0.6070    7.0990 hn        1 MOL      0.191974
    161 H79        -8.7720    0.2750    7.1250 hn        1 MOL      0.191974
    162 N14        -4.7420    1.5420    0.1180 n         1 MOL     -0.017858
    163 C49        -3.7570    1.9150   -0.8540 c3        1 MOL     -0.084905
    164 C50        -4.2690    2.0060   -2.3110 c         1 MOL      0.326165
    165 O22        -4.1180    2.9990   -3.0290 o         1 MOL     -0.522725
    166 C51        -2.4840    1.0010   -0.8340 c3        1 MOL      0.153646
    167 C52        -1.7160    1.5830    0.3410 c3        1 MOL     -0.397259
    168 C53        -0.4890    0.6840    0.6130 c         1 MOL      0.944180
    169 O23         0.5370    1.1400    1.1010 o         1 MOL     -0.798467
    170 O24        -0.4470   -0.5530    0.4640 o         1 MOL     -0.798467
    171 H80        -4.6320    0.6170    0.4910 hn        1 MOL     -0.019473
    172 H81        -3.5460    2.9470   -0.5710 h1        1 MOL      0.107639
    173 H82        -1.8670    1.0460   -1.7350 hc        1 MOL     -0.007985
    174 H83        -2.6570   -0.0490   -0.5900 hc        1 MOL     -0.007985
    175 H84        -2.3120    1.4060    1.2430 hc        1 MOL      0.054114
    176 H85        -1.5500    2.6480    0.1660 hc        1 MOL      0.054114
    177 N15        -5.0850    1.0510   -2.7280 n         1 MOL      0.036912
    178 C54        -5.6800    1.1590   -4.1070 c3        1 MOL     -0.346284
    179 H86        -6.7330    1.4280   -4.0280 h1        1 MOL      0.120771
    180 H87        -5.1520    1.9260   -4.6730 h1        1 MOL      0.120771
    181 H88        -5.5880    0.2010   -4.6190 h1        1 MOL      0.120771
    182 H89        -5.2630    0.1620   -2.2910 hn        1 MOL      0.128532
    183 Ca1         2.0390   -0.8690    1.5450 Ca        1 MOL      1.749227
    184 O25         1.2060   -3.6160    2.2110 oh        1 MOL     -0.812860
    185 H90         0.5770   -4.2090    2.6120 ho        1 MOL      0.405275
    186 H91         1.7760   -4.1860    1.6920 ho        1 MOL      0.405275
    187 O26         0.3940   -0.7460    3.6590 oh        1 MOL     -0.812860
    188 H92        -0.5060   -0.4230    3.6760 ho        1 MOL      0.405275
    189 H93         0.4250   -1.4230    4.3390 ho        1 MOL      0.405275
@<TRIPOS>BOND
     1    1    2 1   
     2    1    4 1   
     3    1    5 1   
     4    1    6 1   
     5    2    3 2   
     6    2    7 1   
     7    7    8 1   
     8    7   15 1   
     9    8    9 1   
    10    8   11 1   
    11    8   16 1   
    12    9   10 2   
    13    9   19 1   
    14   11   12 1   
    15   11   17 1   
    16   11   18 1   
    17   12   13 1   
    18   12   14 1   
    19   19   20 1   
    20   19   28 1   
    21   20   21 1   
    22   20   23 1   
    23   20   29 1   
    24   21   22 2   
    25   21   41 1   
    26   23   24 1   
    27   23   30 1   
    28   23   31 1   
    29   24   25 1   
    30   24   32 1   
    31   24   33 1   
    32   25   26 1   
    33   25   34 1   
    34   25   35 1   
    35   26   27 1   
    36   26   36 1   
    37   26   37 1   
    38   27   38 1   
    39   27   39 1   
    40   27   40 1   
    41   41   42 1   
    42   41   49 1   
    43   42   43 1   
    44   42   45 1   
    45   42   50 1   
    46   43   44 2   
    47   43   53 1   
    48   45   46 1   
    49   45   51 1   
    50   45   52 1   
    51   46   47 1   
    52   46   48 1   
    53   53   54 1   
    54   53   57 1   
    55   54   55 1   
    56   54   58 1   
    57   54   59 1   
    58   55   56 2   
    59   55   60 1   
    60   60   61 1   
    61   60   68 1   
    62   61   62 1   
    63   61   64 1   
    64   61   69 1   
    65   62   63 2   
    66   62   72 1   
    67   64   65 1   
    68   64   70 1   
    69   64   71 1   
    70   65   66 1   
    71   65   67 1   
    72   72   73 1   
    73   72   76 1   
    74   73   74 1   
    75   73   77 1   
    76   73   78 1   
    77   74   75 2   
    78   74   79 1   
    79   79   80 1   
    80   79   86 1   
    81   80   81 1   
    82   80   83 1   
    83   80   87 1   
    84   81   82 2   
    85   81   93 1   
    86   83   84 1   
    87   83   85 1   
    88   83   88 1   
    89   84   90 1   
    90   84   91 1   
    91   84   92 1   
    92   85   89 1   
    93   93   94 1   
    94   93  101 1   
    95   94   95 1   
    96   94   97 1   
    97   94  102 1   
    98   95   96 2   
    99   95  112 1   
   100   97   98 1   
   101   97   99 1   
   102   97  103 1   
   103   98  100 1   
   104   98  104 1   
   105   98  105 1   
   106   99  106 1   
   107   99  107 1   
   108   99  108 1   
   109  100  109 1   
   110  100  110 1   
   111  100  111 1   
   112  112  113 1   
   113  112  119 1   
   114  113  114 1   
   115  113  116 1   
   116  113  120 1   
   117  114  115 2   
   118  114  126 1   
   119  116  117 1   
   120  116  118 1   
   121  116  121 1   
   122  117  123 1   
   123  117  124 1   
   124  117  125 1   
   125  118  122 1   
   126  126  127 1   
   127  126  133 1   
   128  127  128 1   
   129  127  130 1   
   130  127  134 1   
   131  128  129 2   
   132  128  140 1   
   133  130  131 1   
   134  130  132 1   
   135  130  135 1   
   136  131  137 1   
   137  131  138 1   
   138  131  139 1   
   139  132  136 1   
   140  140  141 1   
   141  140  149 1   
   142  141  142 1   
   143  141  144 1   
   144  141  150 1   
   145  142  143 2   
   146  142  162 1   
   147  144  145 1   
   148  144  151 1   
   149  144  152 1   
   150  145  146 1   
   151  145  153 1   
   152  145  154 1   
   153  146  147 1   
   154  146  155 1   
   155  146  156 1   
   156  147  148 1   
   157  147  157 1   
   158  147  158 1   
   159  148  159 1   
   160  148  160 1   
   161  148  161 1   
   162  162  163 1   
   163  162  171 1   
   164  163  164 1   
   165  163  166 1   
   166  163  172 1   
   167  164  165 2   
   168  164  177 1   
   169  166  167 1   
   170  166  173 1   
   171  166  174 1   
   172  167  168 1   
   173  167  175 1   
   174  167  176 1   
   175  168  169 1   
   176  168  170 1   
   177  177  178 1   
   178  177  182 1   
   179  178  179 1   
   180  178  180 1   
   181  178  181 1   
   182  184  185 1   
   183  184  186 1   
   184  187  188 1   
   185  187  189 1   
@<TRIPOS>SUBSTRUCTURE
     1 MOL         1 TEMP              0 ****  ****    0 ROOT
