@<TRIPOS>MOLECULE
MOL
  179   176     1     0     0
SMALL
resp


@<TRIPOS>ATOM
      1 C1          1.9080    2.2350    5.8920 c3        1 MOL     -0.230074
      2 C2          1.2650    1.8800    4.4870 c         1 MOL      0.754753
      3 O1          1.9880    1.9720    3.4920 o         1 MOL     -0.628436
      4 H1          1.8300    1.3730    6.5550 hc        1 MOL      0.059351
      5 H2          2.9580    2.4950    5.7560 hc        1 MOL      0.059351
      6 H3          1.3780    3.0800    6.3320 hc        1 MOL      0.059351
      7 N1         -0.0270    1.6880    4.3520 n         1 MOL     -0.610391
      8 C3         -0.6950    1.5940    3.0460 c3        1 MOL     -0.029850
      9 C4         -0.8030    3.0130    2.4130 c         1 MOL      0.614966
     10 O2         -1.5270    3.8800    2.9310 o         1 MOL     -0.555020
     11 C5         -1.9990    0.8700    3.2460 c3        1 MOL     -0.034266
     12 C6         -2.7910    0.7300    1.9310 c         1 MOL      0.648321
     13 O3         -2.3080    1.0940    0.8440 o         1 MOL     -0.707627
     14 O4         -3.9340    0.3430    2.0520 o         1 MOL     -0.707627
     15 H4         -0.5620    1.3880    5.1560 hn        1 MOL      0.322911
     16 H5         -0.0470    1.0810    2.3360 h1        1 MOL      0.096683
     17 H6         -2.5650    1.3960    4.0160 hc        1 MOL      0.040630
     18 H7         -1.7960   -0.1250    3.6560 hc        1 MOL      0.040630
     19 N2         -0.1390    3.3220    1.2770 n         1 MOL     -0.180148
     20 C7          0.0930    4.7350    0.8100 c3        1 MOL     -0.138202
     21 C8         -1.0740    5.2930   -0.0050 c         1 MOL      0.478641
     22 O5         -1.4020    6.4960    0.1460 o         1 MOL     -0.540958
     23 C9          1.4020    4.7800    0.0340 c3        1 MOL      0.049582
     24 C10         1.9420    6.2210   -0.1170 c3        1 MOL     -0.259094
     25 C11         2.8100    6.1720   -1.3530 c3        1 MOL      0.237722
     26 C12         3.3280    7.4830   -1.8220 c3        1 MOL      0.011146
     27 N3          4.0930    7.4590   -3.1660 n4        1 MOL     -0.333711
     28 H8          0.3540    2.6100    0.7500 hn        1 MOL      0.069765
     29 H9          0.2090    5.3480    1.7030 h1        1 MOL      0.109827
     30 H10         1.1480    4.2980   -0.9080 hc        1 MOL      0.077966
     31 H11         2.1980    4.1800    0.4890 hc        1 MOL      0.077966
     32 H12         2.5190    6.5320    0.7620 hc        1 MOL      0.091452
     33 H13         1.1710    6.9550   -0.3350 hc        1 MOL      0.091452
     34 H14         2.2360    5.7200   -2.1660 hc        1 MOL     -0.050979
     35 H15         3.6330    5.4680   -1.1840 hc        1 MOL     -0.050979
     36 H16         3.9250    7.8630   -0.9820 hx        1 MOL      0.073706
     37 H17         2.4630    8.1380   -1.9730 hx        1 MOL      0.073706
     38 H18         5.0260    7.0850   -3.0630 hn        1 MOL      0.317168
     39 H19         3.6220    6.8780   -3.8440 hn        1 MOL      0.317168
     40 H20         4.2250    8.3370   -3.6520 hn        1 MOL      0.317168
     41 N4         -1.6250    4.4820   -0.9340 n         1 MOL     -0.336605
     42 C13        -2.9310    4.9080   -1.5840 c3        1 MOL      0.021027
     43 C14        -4.1820    4.4740   -0.7970 c         1 MOL      0.370603
     44 O6         -5.3470    4.8570   -1.0620 o         1 MOL     -0.532976
     45 C15        -2.9860    4.2770   -3.0020 c3        1 MOL     -0.283768
     46 C16        -2.6860    2.8110   -3.1890 c         1 MOL      0.802930
     47 O7         -2.2450    2.4320   -4.3400 o         1 MOL     -0.729711
     48 O8         -2.7640    2.0420   -2.2160 o         1 MOL     -0.729711
     49 H21        -1.2430    3.5940   -1.2380 hn        1 MOL      0.295565
     50 H22        -2.9200    5.9810   -1.7900 h1        1 MOL      0.108609
     51 H23        -2.3180    4.8120   -3.6780 hc        1 MOL      0.076711
     52 H24        -3.9880    4.3700   -3.4160 hc        1 MOL      0.076711
     53 N5         -3.9950    3.6410    0.2570 n         1 MOL      0.082020
     54 C17        -5.0730    3.2830    1.2310 c3        1 MOL     -0.287002
     55 C18        -6.0460    2.2190    0.6810 c         1 MOL      0.577018
     56 O9         -7.1920    2.1200    1.2470 o         1 MOL     -0.588361
     57 H25        -3.1110    3.1990    0.4490 hn        1 MOL     -0.032362
     58 H26        -5.5390    4.2030    1.5950 h1        1 MOL      0.142970
     59 H27        -4.6120    2.7430    2.0550 h1        1 MOL      0.142970
     60 N6         -5.7240    1.4930   -0.3930 n         1 MOL     -0.333490
     61 C19        -6.5990    0.3920   -0.9630 c3        1 MOL      0.101863
     62 C20        -6.8330   -0.8370   -0.0250 c         1 MOL      0.380503
     63 O10        -7.7070   -1.5880   -0.3070 o         1 MOL     -0.514248
     64 C21        -5.9170   -0.0800   -2.2240 c3        1 MOL     -0.445710
     65 C22        -4.9040   -1.1820   -1.9550 c         1 MOL      0.599404
     66 N7         -4.9270   -2.2680   -2.7040 n         1 MOL     -0.576829
     67 O11        -4.0340   -1.1440   -1.1210 o         1 MOL     -0.664722
     68 H28        -4.7970    1.5830   -0.8130 hn        1 MOL      0.208032
     69 H29        -7.5560    0.8730   -1.1470 h1        1 MOL      0.102950
     70 H30        -5.3850    0.7640   -2.6580 hc        1 MOL      0.158923
     71 H31        -6.6590   -0.5630   -2.8610 hc        1 MOL      0.158923
     72 H32        -5.7270   -2.3750   -3.3110 hn        1 MOL      0.308685
     73 H33        -4.1870   -2.9490   -2.6480 hn        1 MOL      0.308685
     74 N8         -6.1090   -0.9430    1.1310 n         1 MOL     -0.071459
     75 C23        -6.3120   -1.9350    2.1630 c3        1 MOL     -0.290668
     76 C24        -5.2540   -3.0930    2.2140 c         1 MOL      0.561904
     77 O12        -5.4470   -4.1800    2.8030 o         1 MOL     -0.571949
     78 H34        -5.4150   -0.2340    1.2900 hn        1 MOL      0.242328
     79 H35        -7.2690   -2.4470    2.0190 h1        1 MOL      0.121842
     80 H36        -6.3480   -1.3680    3.0960 h1        1 MOL      0.121842
     81 N9         -4.1060   -2.8280    1.6200 n         1 MOL     -0.322690
     82 C25        -2.8970   -3.6370    1.7500 c3        1 MOL      0.015287
     83 C26        -1.6040   -2.9290    1.2960 c         1 MOL      0.586129
     84 O13        -1.5850   -2.0010    0.5350 o         1 MOL     -0.601973
     85 C27        -3.0490   -4.9690    0.9630 c3        1 MOL     -0.221575
     86 C28        -3.1550   -4.9690   -0.5580 ca        1 MOL      0.162117
     87 C29        -2.0490   -4.7300   -1.3590 ca        1 MOL     -0.203996
     88 C30        -4.3420   -5.3990   -1.1820 ca        1 MOL     -0.203996
     89 C31        -2.0420   -4.6860   -2.7320 ca        1 MOL     -0.246062
     90 C32        -4.3790   -5.3490   -2.6020 ca        1 MOL     -0.246062
     91 C33        -3.2390   -5.0490   -3.4180 ca        1 MOL      0.283573
     92 O14        -3.3660   -5.2220   -4.7180 oh        1 MOL     -0.465875
     93 H37        -4.0800   -2.0380    0.9760 hn        1 MOL      0.315392
     94 H38        -2.8130   -3.9130    2.8000 h1        1 MOL      0.081675
     95 H39        -3.9470   -5.5310    1.2300 hc        1 MOL      0.080148
     96 H40        -2.1640   -5.5670    1.1880 hc        1 MOL      0.080148
     97 H41        -1.1310   -4.3750   -0.9210 ha        1 MOL      0.183703
     98 H42        -5.2390   -5.6790   -0.6510 ha        1 MOL      0.183703
     99 H43        -1.0980   -4.5300   -3.2420 ha        1 MOL      0.139408
    100 H44        -5.2490   -5.7010   -3.1410 ha        1 MOL      0.139408
    101 H45        -2.5100   -5.1170   -5.1320 ho        1 MOL      0.367736
    102 N10        -0.5300   -3.5460    1.8660 n         1 MOL     -0.604305
    103 C34         0.8420   -2.9930    1.7870 c3        1 MOL      0.262543
    104 C35         1.6580   -3.8030    0.8780 c         1 MOL      0.264050
    105 O15         1.5900   -5.0350    0.8450 o         1 MOL     -0.511459
    106 C36         1.4360   -2.9830    3.2350 c3        1 MOL      0.081669
    107 C37         0.6760   -2.0180    4.1650 c3        1 MOL      0.295784
    108 C38         2.9170   -2.5680    3.3810 c3        1 MOL     -0.275887
    109 C39         0.9050   -2.1130    5.6290 c3        1 MOL     -0.179505
    110 H46        -0.6280   -4.3330    2.4980 hn        1 MOL      0.337363
    111 H47         0.8810   -1.9510    1.4650 h1        1 MOL      0.030095
    112 H48         1.3240   -3.9580    3.7110 hc        1 MOL     -0.002183
    113 H49        -0.3650   -2.2900    4.0270 hc        1 MOL     -0.098757
    114 H50         0.8060   -1.0090    3.7980 hc        1 MOL     -0.098757
    115 H51         3.2640   -2.7010    4.4000 hc        1 MOL      0.045328
    116 H52         3.4860   -3.2200    2.7110 hc        1 MOL      0.045328
    117 H53         3.1420   -1.5460    3.0670 hc        1 MOL      0.045328
    118 H54         1.9490   -1.8210    5.7910 hc        1 MOL      0.035717
    119 H55         0.2680   -1.4470    6.2110 hc        1 MOL      0.035717
    120 H56         0.7610   -3.1010    6.0630 hc        1 MOL      0.035717
    121 N11         2.5930   -3.1080    0.1830 n         1 MOL     -0.001828
    122 C40         3.6050   -3.7700   -0.5860 c3        1 MOL     -0.048333
    123 C41         5.0080   -3.1530   -0.2850 c         1 MOL      0.465456
    124 O16         5.1510   -2.0350    0.2500 o         1 MOL     -0.486231
    125 C42         3.2560   -3.7520   -2.0880 c3        1 MOL     -0.063999
    126 O17         3.0950   -2.4380   -2.6300 oh        1 MOL     -0.582585
    127 H57         2.5840   -2.0970    0.1740 hn        1 MOL      0.283042
    128 H58         3.6820   -4.8280   -0.3640 h1        1 MOL      0.087098
    129 H59         2.3140   -4.2420   -2.3460 h1        1 MOL      0.083565
    130 H60         3.9980   -4.2830   -2.6780 h1        1 MOL      0.083565
    131 H61         3.1000   -2.4660   -3.5880 ho        1 MOL      0.416105
    132 N12         6.0870   -3.8190   -0.7930 n         1 MOL     -0.429701
    133 C43         7.4510   -3.4680   -0.4610 c3        1 MOL      0.177251
    134 C44         7.7570   -2.0020   -1.0040 c         1 MOL      0.392798
    135 O18         8.4670   -1.3330   -0.2630 o         1 MOL     -0.494047
    136 C45         8.3550   -4.4000   -1.3330 c3        1 MOL     -0.484662
    137 H62         5.9540   -4.6880   -1.2830 hn        1 MOL      0.269880
    138 H63         7.7220   -3.6520    0.5750 h1        1 MOL      0.096098
    139 H64         8.1720   -5.3830   -0.9100 hc        1 MOL      0.144812
    140 H65         8.1930   -4.2850   -2.4040 hc        1 MOL      0.144812
    141 H66         9.4080   -4.1580   -1.1360 hc        1 MOL      0.144812
    142 N13         7.1120   -1.4970   -2.0550 n         1 MOL     -0.277893
    143 C46         7.2680   -0.0950   -2.4720 c3        1 MOL      0.054460
    144 C47         6.6530    0.9610   -1.5000 c         1 MOL      0.336588
    145 O19         7.2750    2.0210   -1.2100 o         1 MOL     -0.508982
    146 C48         6.9430    0.0630   -3.9360 c3        1 MOL     -0.235391
    147 H67         6.6580   -2.0920   -2.7360 hn        1 MOL      0.234533
    148 H68         8.3250    0.1400   -2.3970 h1        1 MOL      0.103174
    149 H69         5.8610    0.1150   -4.0650 hc        1 MOL      0.071716
    150 H70         7.4410    0.9450   -4.3370 hc        1 MOL      0.071716
    151 H71         7.2170   -0.7880   -4.5700 hc        1 MOL      0.071716
    152 N14         5.6170    0.5940   -0.7560 n         1 MOL     -0.021074
    153 C49         4.9200    1.4380    0.2370 c3        1 MOL     -0.376503
    154 C50         5.5770    1.3430    1.6510 c         1 MOL      0.562131
    155 O20         5.6310    2.3410    2.4100 o         1 MOL     -0.548860
    156 C51         3.4900    0.9850    0.3750 c3        1 MOL      0.182102
    157 C52         2.7000    1.3030   -0.8910 c3        1 MOL      0.210763
    158 C53         1.2430    1.0730   -0.8790 c         1 MOL      0.691401
    159 O21         0.3800    1.8240   -1.4430 o         1 MOL     -0.818686
    160 O22         0.8580    0.0670   -0.3150 o         1 MOL     -0.818686
    161 H72         5.1610   -0.2960   -0.8700 hn        1 MOL      0.123851
    162 H73         4.8570    2.4680   -0.0790 h1        1 MOL      0.150369
    163 H74         3.0100    1.5070    1.2090 hc        1 MOL     -0.011126
    164 H75         3.4470   -0.0790    0.6000 hc        1 MOL     -0.011126
    165 H76         3.0350    0.7050   -1.7350 hc        1 MOL     -0.098322
    166 H77         2.9650    2.2930   -1.2680 hc        1 MOL     -0.098322
    167 N15         5.9760    0.1120    1.9640 n         1 MOL     -0.162151
    168 C54         6.7610   -0.1550    3.1740 c3        1 MOL     -0.287684
    169 H78         6.3380   -1.0100    3.7000 h1        1 MOL      0.114128
    170 H79         7.7930   -0.3720    2.8970 h1        1 MOL      0.114128
    171 H80         6.7350    0.7200    3.8250 h1        1 MOL      0.114128
    172 H81         6.1320   -0.5720    1.2370 hn        1 MOL      0.215480
    173 Ca1        -1.4960   -0.0280   -1.2420 Ca        1 MOL      1.857068
    174 O23         0.2660   -1.8800   -2.3620 oh        1 MOL     -0.912445
    175 H82         0.1700   -2.0270   -3.3020 ho        1 MOL      0.413720
    176 H83         1.1970   -2.0310   -2.1860 ho        1 MOL      0.413720
    177 O24        -2.1720   -0.2990   -4.0830 oh        1 MOL     -0.912445
    178 H84        -2.6380   -0.6430   -4.8450 ho        1 MOL      0.413720
    179 H85        -1.8170    0.5350   -4.3700 ho        1 MOL      0.413720
@<TRIPOS>BOND
     1    1    2 1   
     2    1    4 1   
     3    1    5 1   
     4    1    6 1   
     5    2    3 2   
     6    2    7 1   
     7    7    8 1   
     8    7   15 1   
     9    8    9 1   
    10    8   11 1   
    11    8   16 1   
    12    9   10 2   
    13    9   19 1   
    14   11   12 1   
    15   11   17 1   
    16   11   18 1   
    17   12   13 1   
    18   12   14 1   
    19   19   20 1   
    20   19   28 1   
    21   20   21 1   
    22   20   23 1   
    23   20   29 1   
    24   21   22 2   
    25   21   41 1   
    26   23   24 1   
    27   23   30 1   
    28   23   31 1   
    29   24   25 1   
    30   24   32 1   
    31   24   33 1   
    32   25   26 1   
    33   25   34 1   
    34   25   35 1   
    35   26   27 1   
    36   26   36 1   
    37   26   37 1   
    38   27   38 1   
    39   27   39 1   
    40   27   40 1   
    41   41   42 1   
    42   41   49 1   
    43   42   43 1   
    44   42   45 1   
    45   42   50 1   
    46   43   44 2   
    47   43   53 1   
    48   45   46 1   
    49   45   51 1   
    50   45   52 1   
    51   46   47 1   
    52   46   48 1   
    53   53   54 1   
    54   53   57 1   
    55   54   55 1   
    56   54   58 1   
    57   54   59 1   
    58   55   56 2   
    59   55   60 1   
    60   60   61 1   
    61   60   68 1   
    62   61   62 1   
    63   61   64 1   
    64   61   69 1   
    65   62   63 2   
    66   62   74 1   
    67   64   65 1   
    68   64   70 1   
    69   64   71 1   
    70   65   66 1   
    71   65   67 2   
    72   66   72 1   
    73   66   73 1   
    74   74   75 1   
    75   74   78 1   
    76   75   76 1   
    77   75   79 1   
    78   75   80 1   
    79   76   77 2   
    80   76   81 1   
    81   81   82 1   
    82   81   93 1   
    83   82   83 1   
    84   82   85 1   
    85   82   94 1   
    86   83   84 2   
    87   83  102 1   
    88   85   86 1   
    89   85   95 1   
    90   85   96 1   
    91   86   87 ar  
    92   86   88 ar  
    93   87   89 ar  
    94   87   97 1   
    95   88   90 ar  
    96   88   98 1   
    97   89   91 ar  
    98   89   99 1   
    99   90   91 ar  
   100   90  100 1   
   101   91   92 1   
   102   92  101 1   
   103  102  103 1   
   104  102  110 1   
   105  103  104 1   
   106  103  106 1   
   107  103  111 1   
   108  104  105 2   
   109  104  121 1   
   110  106  107 1   
   111  106  108 1   
   112  106  112 1   
   113  107  109 1   
   114  107  113 1   
   115  107  114 1   
   116  108  115 1   
   117  108  116 1   
   118  108  117 1   
   119  109  118 1   
   120  109  119 1   
   121  109  120 1   
   122  121  122 1   
   123  121  127 1   
   124  122  123 1   
   125  122  125 1   
   126  122  128 1   
   127  123  124 2   
   128  123  132 1   
   129  125  126 1   
   130  125  129 1   
   131  125  130 1   
   132  126  131 1   
   133  132  133 1   
   134  132  137 1   
   135  133  134 1   
   136  133  136 1   
   137  133  138 1   
   138  134  135 2   
   139  134  142 1   
   140  136  139 1   
   141  136  140 1   
   142  136  141 1   
   143  142  143 1   
   144  142  147 1   
   145  143  144 1   
   146  143  146 1   
   147  143  148 1   
   148  144  145 2   
   149  144  152 1   
   150  146  149 1   
   151  146  150 1   
   152  146  151 1   
   153  152  153 1   
   154  152  161 1   
   155  153  154 1   
   156  153  156 1   
   157  153  162 1   
   158  154  155 2   
   159  154  167 1   
   160  156  157 1   
   161  156  163 1   
   162  156  164 1   
   163  157  158 1   
   164  157  165 1   
   165  157  166 1   
   166  158  159 1   
   167  158  160 1   
   168  167  168 1   
   169  167  172 1   
   170  168  169 1   
   171  168  170 1   
   172  168  171 1   
   173  174  175 1   
   174  174  176 1   
   175  177  178 1   
   176  177  179 1   
@<TRIPOS>SUBSTRUCTURE
     1 MOL         1 TEMP              0 ****  ****    0 ROOT
