@<TRIPOS>MOLECULE
MOL
  189   185     1     0     0
SMALL
resp


@<TRIPOS>ATOM
      1 C1         -0.3860    5.4200    5.3980 c3        1 MOL     -0.413572
      2 C2         -0.8950    4.5910    4.2420 c         1 MOL      0.733569
      3 O1         -1.2080    3.4100    4.4060 o         1 MOL     -0.597431
      4 H1         -0.4080    6.4750    5.1250 hc        1 MOL      0.105001
      5 H2         -1.0200    5.2580    6.2700 hc        1 MOL      0.105001
      6 H3          0.6370    5.1280    5.6330 hc        1 MOL      0.105001
      7 N1         -1.0120    5.1880    3.0550 n         1 MOL     -0.572853
      8 C3         -1.5520    4.5670    1.8180 c3        1 MOL      0.247761
      9 C4         -1.1690    5.3750    0.5400 c         1 MOL      0.474558
     10 O2         -0.8600    6.5720    0.6270 o         1 MOL     -0.564743
     11 C5         -3.1010    4.5040    2.0170 c3        1 MOL     -0.336140
     12 C6         -3.8300    3.4510    1.0700 c         1 MOL      0.647514
     13 O3         -5.1410    3.5180    1.1500 o         1 MOL     -0.653750
     14 O4         -3.1760    2.8430    0.1910 o         1 MOL     -0.653750
     15 H4         -0.7890    6.1740    2.9930 hn        1 MOL      0.292679
     16 H5         -1.1420    3.5610    1.7970 h1        1 MOL      0.021476
     17 H6         -3.4960    5.4490    1.6420 hc        1 MOL      0.088512
     18 H7         -3.3250    4.3720    3.0780 hc        1 MOL      0.088512
     19 N2         -1.2690    4.6640   -0.6330 n         1 MOL     -0.308004
     20 C7         -0.8490    5.1420   -1.9430 c3        1 MOL     -0.134014
     21 C8         -1.8720    4.6820   -3.0230 c         1 MOL      0.550325
     22 O5         -2.0750    5.3530   -4.0340 o         1 MOL     -0.575214
     23 C9          0.5420    4.5500   -2.2210 c3        1 MOL      0.326323
     24 C10         1.6700    5.0770   -1.2500 c3        1 MOL     -0.256185
     25 C11         1.0190    4.7460   -3.7200 c3        1 MOL     -0.193428
     26 C12         3.1720    4.5960   -1.5290 c3        1 MOL     -0.072403
     27 H8         -1.3970    3.6830   -0.4840 hn        1 MOL      0.345493
     28 H9         -0.7460    6.2240   -1.8890 h1        1 MOL      0.087605
     29 H10         0.5090    3.4870   -1.9800 hc        1 MOL     -0.042128
     30 H11         1.3190    4.8910   -0.2340 hc        1 MOL      0.058002
     31 H12         1.6680    6.1700   -1.2670 hc        1 MOL      0.058002
     32 H13         0.2360    4.7460   -4.4750 hc        1 MOL      0.031967
     33 H14         1.4930    5.7320   -3.7450 hc        1 MOL      0.031967
     34 H15         1.7740    4.0000   -3.9840 hc        1 MOL      0.031967
     35 H16         3.2670    3.5560   -1.8350 hc        1 MOL      0.034311
     36 H17         3.6350    5.0950   -2.3790 hc        1 MOL      0.034311
     37 H18         3.7920    4.7030   -0.6350 hc        1 MOL      0.034311
     38 N3         -2.6390    3.5910   -2.7850 n         1 MOL     -0.403487
     39 C13        -3.4380    2.9050   -3.7630 c3        1 MOL      0.294249
     40 C14        -4.8720    2.6570   -3.3470 c         1 MOL      0.268077
     41 O6         -5.6770    2.4320   -4.2640 o         1 MOL     -0.540508
     42 C15        -2.8640    1.5560   -4.3620 c3        1 MOL     -0.321862
     43 C16        -2.4560    0.4990   -3.2920 c         1 MOL      0.746723
     44 O7         -3.0190    0.5680   -2.1660 o         1 MOL     -0.695284
     45 O8         -1.4920   -0.3440   -3.5540 o         1 MOL     -0.695284
     46 H19        -2.5510    3.0780   -1.9250 hn        1 MOL      0.179904
     47 H20        -3.5680    3.5550   -4.6280 h1        1 MOL      0.051128
     48 H21        -1.9420    1.8290   -4.8800 hc        1 MOL      0.074446
     49 H22        -3.6590    1.1050   -4.9650 hc        1 MOL      0.074446
     50 N4         -5.2800    2.6970   -2.0610 n         1 MOL     -0.133948
     51 C17        -6.6650    2.4540   -1.4910 c3        1 MOL     -0.164511
     52 C18        -7.2100    1.0480   -1.8510 c         1 MOL      0.508368
     53 O9         -8.3890    0.7940   -1.7920 o         1 MOL     -0.602869
     54 H23        -4.5550    3.0310   -1.4400 hn        1 MOL      0.148091
     55 H24        -7.3720    3.1630   -1.9200 h1        1 MOL      0.099891
     56 H25        -6.6400    2.5930   -0.4090 h1        1 MOL      0.099891
     57 N5         -6.3120    0.1160   -2.1160 n         1 MOL     -0.185813
     58 C19        -6.4510   -1.2860   -2.2570 c3        1 MOL     -0.082693
     59 C20        -6.9630   -2.1020   -1.0590 c         1 MOL      0.438793
     60 O10        -7.3560   -3.2640   -1.2190 o         1 MOL     -0.540706
     61 C21        -5.1070   -1.9360   -2.7740 c3        1 MOL     -0.222748
     62 C22        -4.1650   -2.3060   -1.6520 c         1 MOL      0.623196
     63 O11        -4.1030   -1.6700   -0.5680 o         1 MOL     -0.624845
     64 O12        -3.3800   -3.2730   -1.8780 o         1 MOL     -0.624845
     65 H26        -5.3810    0.4940   -2.0310 hn        1 MOL      0.212458
     66 H27        -7.2110   -1.4700   -3.0120 h1        1 MOL      0.112245
     67 H28        -4.5940   -1.2170   -3.4150 hc        1 MOL      0.092542
     68 H29        -5.2690   -2.8380   -3.3820 hc        1 MOL      0.092542
     69 N6         -7.0810   -1.5950    0.1360 n         1 MOL     -0.164751
     70 C23        -7.4700   -2.3250    1.3530 c3        1 MOL     -0.314057
     71 C24        -6.4540   -3.2330    1.9440 c         1 MOL      0.585585
     72 O13        -6.8250   -4.0070    2.8400 o         1 MOL     -0.615521
     73 H30        -6.9610   -0.5920    0.2240 hn        1 MOL      0.255499
     74 H31        -8.3570   -2.9060    1.0890 h1        1 MOL      0.130729
     75 H32        -7.7280   -1.6370    2.1550 h1        1 MOL      0.130729
     76 N7         -5.2150   -3.2270    1.4420 n         1 MOL     -0.098465
     77 C25        -4.0010   -3.8460    1.9100 c3        1 MOL      0.071173
     78 C26        -2.8140   -2.9040    2.1470 c         1 MOL      0.333240
     79 O14        -3.0300   -1.6940    2.0590 o         1 MOL     -0.541055
     80 C27        -3.7000   -5.0350    0.9120 c3        1 MOL      0.021366
     81 C28        -4.8170   -5.4270   -0.0940 c3        1 MOL     -0.287296
     82 C29        -4.2080   -6.4980   -0.9900 c         1 MOL      0.594041
     83 N8         -3.4080   -6.0740   -1.9250 n         1 MOL     -0.662047
     84 O15        -4.3560   -7.7070   -0.8480 o         1 MOL     -0.618982
     85 H33        -5.0550   -2.5290    0.7170 hn        1 MOL     -0.037667
     86 H34        -4.2080   -4.3040    2.8750 h1        1 MOL      0.018435
     87 H35        -3.4140   -5.8450    1.5720 hc        1 MOL      0.021518
     88 H36        -2.8620   -4.7540    0.2780 hc        1 MOL      0.021518
     89 H37        -5.1800   -4.6020   -0.7130 hc        1 MOL      0.111020
     90 H38        -5.6850   -5.8740    0.4030 hc        1 MOL      0.111020
     91 H39        -3.3150   -5.0650   -1.9920 hn        1 MOL      0.317050
     92 H40        -3.0220   -6.7180   -2.5940 hn        1 MOL      0.317050
     93 N9         -1.6340   -3.3760    2.3930 n         1 MOL     -0.129861
     94 C30        -0.4310   -2.6550    2.7490 c3        1 MOL     -0.154197
     95 C31         0.7340   -3.1720    1.8450 c         1 MOL      0.404628
     96 O16         0.9960   -4.3400    1.9850 o         1 MOL     -0.535909
     97 C32        -0.0600   -2.8030    4.2140 c3        1 MOL      0.457213
     98 C33         0.9750   -1.7980    4.7420 c3        1 MOL     -0.398117
     99 C34        -1.2790   -2.6670    5.0810 c3        1 MOL     -0.398117
    100 H41        -1.6540   -4.3850    2.4170 hn        1 MOL      0.174713
    101 H42        -0.6050   -1.5950    2.5670 h1        1 MOL      0.170170
    102 H43         0.2930   -3.8220    4.3990 hc        1 MOL     -0.050783
    103 H44         0.6420   -0.7910    4.5020 hc        1 MOL      0.078695
    104 H45         1.1540   -2.0280    5.7950 hc        1 MOL      0.078695
    105 H46         1.9030   -1.9560    4.1840 hc        1 MOL      0.078695
    106 H47        -2.0260   -3.4450    4.9140 hc        1 MOL      0.078695
    107 H48        -1.0040   -2.8330    6.1180 hc        1 MOL      0.078695
    108 H49        -1.7460   -1.7040    4.8810 hc        1 MOL      0.078695
    109 N10         1.4830   -2.2420    1.1570 n         1 MOL     -0.129523
    110 C35         2.5870   -2.4380    0.2410 c3        1 MOL      0.035306
    111 C36         3.9210   -2.1960    0.9360 c         1 MOL      0.164920
    112 O17         3.9850   -1.4330    1.9370 o         1 MOL     -0.167864
    113 C37         2.3650   -1.5370   -0.9780 c3        1 MOL     -0.318960
    114 C38         3.4830   -1.8120   -1.9600 c         1 MOL      0.659389
    115 N11         3.6060   -2.9850   -2.4440 n         1 MOL     -0.739501
    116 O18         4.3140   -0.9650   -2.2100 o         1 MOL     -0.525134
    117 H50         1.1090   -1.3070    1.0780 hn        1 MOL      0.198302
    118 H51         2.4880   -3.4600   -0.1340 h1        1 MOL      0.046641
    119 H52         2.4680   -0.5160   -0.6120 hc        1 MOL      0.138449
    120 H53         1.3850   -1.7330   -1.3930 hc        1 MOL      0.138449
    121 H54         3.0370   -3.7530   -2.1120 hn        1 MOL      0.364691
    122 H55         4.3950   -3.1140   -3.0570 hn        1 MOL      0.364691
    123 N12         5.0460   -2.6240    0.3290 n         1 MOL     -0.134953
    124 C39         6.3700   -2.3160    0.9280 c3        1 MOL      0.006147
    125 C40         6.7810   -0.8420    0.8480 c         1 MOL      0.414032
    126 O19         7.3240   -0.3680    1.8300 o         1 MOL     -0.541200
    127 C41         7.3560   -3.2850    0.3750 c3        1 MOL     -0.220474
    128 C42         7.3760   -3.4050   -1.1170 ca        1 MOL      0.016589
    129 C43         6.7450   -4.4980   -1.6980 ca        1 MOL     -0.117752
    130 C44         7.9420   -2.3790   -1.9170 ca        1 MOL     -0.117752
    131 C45         6.7290   -4.6310   -3.0850 ca        1 MOL     -0.280222
    132 C46         7.8390   -2.5370   -3.2760 ca        1 MOL     -0.280222
    133 C47         7.3400   -3.6620   -3.8720 ca        1 MOL      0.422099
    134 O20         7.3630   -3.7510   -5.2430 oh        1 MOL     -0.607798
    135 H56         4.9410   -3.0300   -0.5880 hn        1 MOL      0.072051
    136 H57         6.2300   -2.4920    1.9970 h1        1 MOL      0.084386
    137 H58         7.1640   -4.2650    0.7920 hc        1 MOL      0.089488
    138 H59         8.3410   -3.0260    0.7670 hc        1 MOL      0.089488
    139 H60         6.2350   -5.2270   -1.0760 ha        1 MOL      0.115151
    140 H61         8.4780   -1.5050   -1.5880 ha        1 MOL      0.115151
    141 H62         6.2040   -5.4370   -3.5780 ha        1 MOL      0.116328
    142 H63         8.1650   -1.7720   -3.9620 ha        1 MOL      0.116328
    143 H64         7.8010   -3.0180   -5.6890 ho        1 MOL      0.426209
    144 N13         6.3430   -0.0790   -0.1750 n         1 MOL      0.036155
    145 C48         6.4330    1.3490   -0.1140 c3        1 MOL     -0.394839
    146 C49         5.4970    2.0400    0.9180 c         1 MOL      0.555762
    147 O21         5.7750    3.2170    1.2780 o         1 MOL     -0.552868
    148 C50         6.0870    1.8850   -1.5010 c3        1 MOL      0.007238
    149 C51         7.0950    1.5230   -2.5840 c3        1 MOL     -0.065705
    150 C52         8.5120    1.4590   -2.1970 c         1 MOL      0.700233
    151 O22         9.0050    2.3720   -1.5040 o         1 MOL     -0.710232
    152 O23         9.3370    0.6880   -2.7460 o         1 MOL     -0.710232
    153 H65         5.7020   -0.4650   -0.8540 hn        1 MOL      0.296537
    154 H66         7.4540    1.5900    0.1530 h1        1 MOL      0.182643
    155 H67         6.0420    2.9710   -1.4710 hc        1 MOL      0.024337
    156 H68         5.1160    1.5250   -1.8590 hc        1 MOL      0.024337
    157 H69         7.0550    2.2280   -3.4110 hc        1 MOL     -0.023214
    158 H70         6.6520    0.6050   -2.9780 hc        1 MOL     -0.023214
    159 N14         4.5210    1.3360    1.5120 n         1 MOL     -0.101119
    160 C53         3.7320    1.8760    2.5860 c3        1 MOL     -0.020828
    161 C54         4.1550    1.4410    4.0030 c         1 MOL      0.477106
    162 O24         4.3290    2.2430    4.8420 o         1 MOL     -0.537191
    163 C55         2.2810    1.4590    2.4310 c3        1 MOL     -0.043857
    164 C56         1.5870    2.1380    1.1730 c3        1 MOL      0.005428
    165 C57         0.3000    1.4030    0.7470 c         1 MOL      0.786858
    166 O25        -0.4580    1.9560   -0.1140 o         1 MOL     -0.774738
    167 O26         0.0150    0.3000    1.2710 o         1 MOL     -0.774738
    168 H71         4.4560    0.3820    1.1720 hn        1 MOL     -0.070968
    169 H72         3.7450    2.9620    2.6650 h1        1 MOL      0.057907
    170 H73         1.6900    1.8050    3.2750 hc        1 MOL      0.033441
    171 H74         2.1840    0.3810    2.2910 hc        1 MOL      0.033441
    172 H75         2.2570    2.2050    0.3090 hc        1 MOL     -0.009930
    173 H76         1.3610    3.1800    1.4200 hc        1 MOL     -0.009930
    174 N15         4.3270    0.0780    4.1900 n         1 MOL     -0.043016
    175 C58         4.6090   -0.6650    5.3940 c3        1 MOL     -0.261389
    176 H77         4.3900   -1.7200    5.2290 h1        1 MOL      0.085839
    177 H78         5.6600   -0.5480    5.6550 h1        1 MOL      0.085839
    178 H79         3.9890   -0.2890    6.2070 h1        1 MOL      0.085839
    179 H80         4.1370   -0.4520    3.3610 hn        1 MOL     -0.039424
    180 Ca1        -2.5380    0.3240    0.4230 Ca        1 MOL      1.734530
    181 O27        -2.1520    1.2190    3.1150 oh        1 MOL     -0.891211
    182 O28        -1.2690   -1.7390   -0.9760 oh        1 MOL     -0.891211
    183 H81        -2.6120    0.9140    3.9010 ho        1 MOL      0.410747
    184 H82        -1.1650   -1.4560   -1.8910 ho        1 MOL      0.410747
    185 H83        -1.7950    2.0690    3.3630 ho        1 MOL      0.410747
    186 H84        -1.8490   -2.4920   -1.0340 ho        1 MOL      0.410747
    187 O29        -5.1290    0.5820    1.3050 oh        1 MOL     -0.891211
    188 H85        -5.3360    0.0880    2.1080 ho        1 MOL      0.410747
    189 H86        -5.3130    1.4910    1.5350 ho        1 MOL      0.410747
@<TRIPOS>BOND
     1    1    2 1   
     2    1    4 1   
     3    1    5 1   
     4    1    6 1   
     5    2    3 2   
     6    2    7 1   
     7    7    8 1   
     8    7   15 1   
     9    8    9 1   
    10    8   11 1   
    11    8   16 1   
    12    9   10 2   
    13    9   19 1   
    14   11   12 1   
    15   11   17 1   
    16   11   18 1   
    17   12   13 1   
    18   12   14 1   
    19   19   20 1   
    20   19   27 1   
    21   20   21 1   
    22   20   23 1   
    23   20   28 1   
    24   21   22 2   
    25   21   38 1   
    26   23   24 1   
    27   23   25 1   
    28   23   29 1   
    29   24   26 1   
    30   24   30 1   
    31   24   31 1   
    32   25   32 1   
    33   25   33 1   
    34   25   34 1   
    35   26   35 1   
    36   26   36 1   
    37   26   37 1   
    38   38   39 1   
    39   38   46 1   
    40   39   40 1   
    41   39   42 1   
    42   39   47 1   
    43   40   41 2   
    44   40   50 1   
    45   42   43 1   
    46   42   48 1   
    47   42   49 1   
    48   43   44 1   
    49   43   45 1   
    50   50   51 1   
    51   50   54 1   
    52   51   52 1   
    53   51   55 1   
    54   51   56 1   
    55   52   53 2   
    56   52   57 1   
    57   57   58 1   
    58   57   65 1   
    59   58   59 1   
    60   58   61 1   
    61   58   66 1   
    62   59   60 2   
    63   59   69 1   
    64   61   62 1   
    65   61   67 1   
    66   61   68 1   
    67   62   63 1   
    68   62   64 1   
    69   69   70 1   
    70   69   73 1   
    71   70   71 1   
    72   70   74 1   
    73   70   75 1   
    74   71   72 2   
    75   71   76 1   
    76   76   77 1   
    77   76   85 1   
    78   77   78 1   
    79   77   80 1   
    80   77   86 1   
    81   78   79 2   
    82   78   93 1   
    83   80   81 1   
    84   80   87 1   
    85   80   88 1   
    86   81   82 1   
    87   81   89 1   
    88   81   90 1   
    89   82   83 1   
    90   82   84 2   
    91   83   91 1   
    92   83   92 1   
    93   93   94 1   
    94   93  100 1   
    95   94   95 1   
    96   94   97 1   
    97   94  101 1   
    98   95   96 2   
    99   95  109 1   
   100   97   98 1   
   101   97   99 1   
   102   97  102 1   
   103   98  103 1   
   104   98  104 1   
   105   98  105 1   
   106   99  106 1   
   107   99  107 1   
   108   99  108 1   
   109  109  110 1   
   110  109  117 1   
   111  110  111 1   
   112  110  113 1   
   113  110  118 1   
   114  111  112 2   
   115  111  123 1   
   116  113  114 1   
   117  113  119 1   
   118  113  120 1   
   119  114  115 1   
   120  114  116 2   
   121  115  121 1   
   122  115  122 1   
   123  123  124 1   
   124  123  135 1   
   125  124  125 1   
   126  124  127 1   
   127  124  136 1   
   128  125  126 2   
   129  125  144 1   
   130  127  128 1   
   131  127  137 1   
   132  127  138 1   
   133  128  129 ar  
   134  128  130 ar  
   135  129  131 ar  
   136  129  139 1   
   137  130  132 ar  
   138  130  140 1   
   139  131  133 ar  
   140  131  141 1   
   141  132  133 ar  
   142  132  142 1   
   143  133  134 1   
   144  134  143 1   
   145  144  145 1   
   146  144  153 1   
   147  145  146 1   
   148  145  148 1   
   149  145  154 1   
   150  146  147 2   
   151  146  159 1   
   152  148  149 1   
   153  148  155 1   
   154  148  156 1   
   155  149  150 1   
   156  149  157 1   
   157  149  158 1   
   158  150  151 1   
   159  150  152 1   
   160  159  160 1   
   161  159  168 1   
   162  160  161 1   
   163  160  163 1   
   164  160  169 1   
   165  161  162 2   
   166  161  174 1   
   167  163  164 1   
   168  163  170 1   
   169  163  171 1   
   170  164  165 1   
   171  164  172 1   
   172  164  173 1   
   173  165  166 1   
   174  165  167 1   
   175  174  175 1   
   176  174  179 1   
   177  175  176 1   
   178  175  177 1   
   179  175  178 1   
   180  181  183 1   
   181  181  185 1   
   182  182  184 1   
   183  182  186 1   
   184  187  188 1   
   185  187  189 1   
@<TRIPOS>SUBSTRUCTURE
     1 MOL         1 TEMP              0 ****  ****    0 ROOT
