@<TRIPOS>MOLECULE
MOL
  175   173     1     0     0
SMALL
resp


@<TRIPOS>ATOM
      1 C1          0.2920   -3.9190    5.3890 c3        1 MOL     -0.299246
      2 C2          0.6170   -3.4530    3.9680 c         1 MOL      0.704398
      3 O1          0.2630   -4.1250    3.0430 o         1 MOL     -0.588447
      4 H1          1.1230   -3.6750    6.0510 hc        1 MOL      0.071452
      5 H2         -0.6110   -3.4170    5.7390 hc        1 MOL      0.071452
      6 H3          0.1310   -4.9970    5.3910 hc        1 MOL      0.071452
      7 N1          1.5070   -2.5150    3.7130 n         1 MOL     -0.541828
      8 C3          2.1220   -2.2190    2.3890 c3        1 MOL      0.161411
      9 C4          2.8080   -3.4230    1.7920 c         1 MOL      0.570152
     10 O2          3.9500   -3.7390    2.2540 o         1 MOL     -0.580166
     11 C5          3.1030   -1.1190    2.6070 c3        1 MOL     -0.174035
     12 C6          3.9530   -0.5840    1.4320 c         1 MOL      0.685510
     13 O3          4.8640    0.2850    1.6740 o         1 MOL     -0.668553
     14 O4          3.7710   -1.0570    0.2550 o         1 MOL     -0.668553
     15 H4          1.7990   -1.9600    4.5000 hn        1 MOL      0.274754
     16 H5          1.4010   -1.7450    1.7280 h1        1 MOL     -0.015871
     17 H6          3.8030   -1.2380    3.4350 hc        1 MOL      0.048992
     18 H7          2.5510   -0.2450    2.9570 hc        1 MOL      0.048992
     19 N2          2.1830   -4.0780    0.7560 n         1 MOL     -0.414520
     20 C7          2.8210   -5.2800    0.1330 c3        1 MOL      0.297264
     21 C8          4.0230   -5.0410   -0.7930 c         1 MOL      0.280260
     22 O5          4.8490   -5.9860   -0.8040 o         1 MOL     -0.560258
     23 C9          1.7690   -5.9850   -0.6900 c3        1 MOL     -0.297662
     24 H8          1.3420   -3.7020    0.3500 hn        1 MOL      0.280058
     25 H9          3.2050   -5.9590    0.8870 h1        1 MOL      0.025998
     26 H10         2.1460   -6.9660   -1.0030 hc        1 MOL      0.075124
     27 H11         0.9760   -6.2820   -0.0110 hc        1 MOL      0.075124
     28 H12         1.4630   -5.4290   -1.5700 hc        1 MOL      0.075124
     29 N3          4.1680   -3.8860   -1.4300 n         1 MOL     -0.007321
     30 C10         5.2850   -3.6120   -2.2550 c3        1 MOL     -0.034880
     31 C11         6.5010   -3.0120   -1.5030 c         1 MOL      0.378681
     32 O6          7.6360   -2.9350   -2.0930 o         1 MOL     -0.543657
     33 C12         4.8950   -2.8170   -3.5170 c3        1 MOL     -0.174398
     34 C13         3.8030   -1.7430   -3.1410 c         1 MOL      0.659151
     35 O7          2.5880   -2.1250   -2.9310 o         1 MOL     -0.668351
     36 O8          4.1830   -0.6160   -3.0960 o         1 MOL     -0.668351
     37 H13         3.4770   -3.1850   -1.2490 hn        1 MOL      0.046389
     38 H14         5.8220   -4.4740   -2.6430 h1        1 MOL      0.095523
     39 H15         4.3210   -3.4660   -4.1680 hc        1 MOL      0.047762
     40 H16         5.7030   -2.3340   -4.0630 hc        1 MOL      0.047762
     41 N4          6.3760   -2.5220   -0.2540 n         1 MOL     -0.101919
     42 C14         7.5190   -2.0370    0.5780 c3        1 MOL     -0.216650
     43 C15         8.0190   -0.6790    0.1230 c         1 MOL      0.522116
     44 O9          9.2420   -0.4190    0.1690 o         1 MOL     -0.580801
     45 H17         5.4560   -2.5570    0.1570 hn        1 MOL      0.172311
     46 H18         8.3560   -2.7090    0.4150 h1        1 MOL      0.107212
     47 H19         7.2970   -1.9160    1.6370 h1        1 MOL      0.107212
     48 N5          7.0620    0.1320   -0.3340 n         1 MOL     -0.091162
     49 C16         7.2980    1.4960   -0.8840 c3        1 MOL     -0.313938
     50 C17         7.0420    2.6920   -0.0090 c         1 MOL      0.594206
     51 O10         7.4660    3.7810   -0.3220 o         1 MOL     -0.567382
     52 C18         6.3690    1.4560   -2.1020 c3        1 MOL      0.022871
     53 C19         5.0170    1.9890   -1.8160 c         1 MOL      0.297982
     54 N6          4.6220    3.0800   -2.3500 n         1 MOL     -0.663109
     55 O11         4.3110    1.5440   -0.9610 o         1 MOL     -0.412928
     56 H20         6.0940   -0.0660   -0.1030 hn        1 MOL      0.093734
     57 H21         8.2780    1.5020   -1.3440 h1        1 MOL      0.171606
     58 H22         6.3330    0.4690   -2.5600 hc        1 MOL      0.054442
     59 H23         6.7510    2.1640   -2.8390 hc        1 MOL      0.054442
     60 H24         5.1880    3.4490   -3.1050 hn        1 MOL      0.330359
     61 H25         3.7410    3.4770   -2.0760 hn        1 MOL      0.330359
     62 N7          6.5070    2.5720    1.2060 n         1 MOL     -0.292388
     63 C20         6.3580    3.6940    2.1660 c3        1 MOL     -0.217281
     64 C21         5.0240    4.4830    1.9700 c         1 MOL      0.520657
     65 O12         4.8440    5.5410    2.5620 o         1 MOL     -0.579223
     66 H26         6.0980    1.6740    1.3900 hn        1 MOL      0.251954
     67 H27         7.2550    4.3130    2.1290 h1        1 MOL      0.127024
     68 H28         6.3020    3.2260    3.1520 h1        1 MOL      0.127024
     69 N8          4.0660    3.9280    1.2530 n         1 MOL     -0.124973
     70 C22         2.6880    4.4230    1.0920 c3        1 MOL     -0.156740
     71 C23         1.7310    3.2380    1.1290 c         1 MOL      0.593485
     72 O13         2.2260    2.0460    1.0670 o         1 MOL     -0.589652
     73 C24         2.4930    5.3470   -0.1640 c3        1 MOL      0.355899
     74 C25         3.6230    6.3470   -0.5030 c3        1 MOL     -0.406516
     75 O14         2.4550    4.5370   -1.4050 oh        1 MOL     -0.715051
     76 H29         4.1420    3.0000    0.8810 hn        1 MOL      0.220836
     77 H30         2.3470    5.0160    1.9470 h1        1 MOL      0.082730
     78 H31         1.5930    5.9450   -0.0670 h1        1 MOL      0.041471
     79 H32         2.8920    5.0790   -2.0690 ho        1 MOL      0.426045
     80 H33         3.2110    7.0360   -1.2420 hc        1 MOL      0.112799
     81 H34         3.7710    6.8030    0.4770 hc        1 MOL      0.112799
     82 H35         4.5590    5.8550   -0.7620 hc        1 MOL      0.112799
     83 N9          0.4250    3.5530    1.1730 n         1 MOL     -0.434688
     84 C26        -0.6720    2.5780    1.0340 c3        1 MOL      0.044904
     85 C27        -1.5880    3.0090   -0.1460 c         1 MOL      0.374587
     86 O15        -2.0150    4.1660   -0.2270 o         1 MOL     -0.567887
     87 C28        -1.5360    2.3380    2.3080 c3        1 MOL      0.333666
     88 C29        -2.2390    3.5820    2.9210 c3        1 MOL     -0.098784
     89 C30        -0.6340    1.7330    3.3580 c3        1 MOL     -0.330618
     90 C31        -3.0430    3.3970    4.2300 c3        1 MOL     -0.039156
     91 H36         0.1690    4.5130    1.3430 hn        1 MOL      0.268564
     92 H37        -0.2470    1.6080    0.7500 h1        1 MOL      0.039993
     93 H38        -2.3050    1.6080    2.0680 hc        1 MOL     -0.113473
     94 H39        -2.9050    3.8700    2.1200 hc        1 MOL      0.018271
     95 H40        -1.5310    4.4100    2.9570 hc        1 MOL      0.018271
     96 H41        -0.1520    0.8180    3.0000 hc        1 MOL      0.066154
     97 H42         0.1010    2.4380    3.7440 hc        1 MOL      0.066154
     98 H43        -1.2340    1.3430    4.1780 hc        1 MOL      0.066154
     99 H44        -3.5370    2.4200    4.2280 hc        1 MOL      0.004545
    100 H45        -2.3870    3.4060    5.1000 hc        1 MOL      0.004545
    101 H46        -3.7910    4.1700    4.4440 hc        1 MOL      0.004545
    102 N10        -2.0550    1.9890   -0.8940 n         1 MOL     -0.131542
    103 C32        -3.1880    1.9100   -1.8040 c3        1 MOL     -0.114242
    104 C33        -4.4590    1.6120   -0.9470 c         1 MOL      0.575249
    105 O16        -4.3000    1.0840    0.1710 o         1 MOL     -0.434718
    106 C34        -2.8110    0.7840   -2.8050 c3        1 MOL     -0.141457
    107 C35        -3.8970    0.5450   -3.8670 c         1 MOL      0.704027
    108 O17        -3.6540   -0.3660   -4.6330 o         1 MOL     -0.696004
    109 O18        -4.8960    1.2800   -4.0220 o         1 MOL     -0.696004
    110 H47        -1.5500    1.1200   -0.7850 hn        1 MOL      0.179322
    111 H48        -3.4390    2.8480   -2.3110 h1        1 MOL      0.073310
    112 H49        -2.5520   -0.1270   -2.2680 hc        1 MOL      0.048491
    113 H50        -1.9250    1.1020   -3.3520 hc        1 MOL      0.048491
    114 N11        -5.7090    1.7170   -1.5080 n         1 MOL     -0.621007
    115 C36        -6.9640    1.3670   -0.8080 c3        1 MOL      0.370164
    116 C37        -7.1070   -0.0860   -0.2620 c         1 MOL      0.390289
    117 O19        -7.4640   -0.1040    0.9520 o         1 MOL     -0.569378
    118 C38        -8.1720    1.7270   -1.6940 c3        1 MOL     -0.035694
    119 C39        -9.4890    1.2260   -1.2110 ca        1 MOL      0.021198
    120 C40       -10.0490    1.8320   -0.0730 ca        1 MOL     -0.151894
    121 C41       -10.2380    0.2610   -1.8680 ca        1 MOL     -0.151894
    122 C42       -11.2670    1.5820    0.3940 ca        1 MOL     -0.088535
    123 C43       -11.5330   -0.0760   -1.3630 ca        1 MOL     -0.088535
    124 C44       -12.0810    0.5730   -0.2200 ca        1 MOL     -0.141457
    125 H51        -5.7120    1.9530   -2.4920 hn        1 MOL      0.279867
    126 H52        -7.0160    2.0370    0.0500 h1        1 MOL      0.000268
    127 H53        -8.1370    1.3140   -2.6990 hc        1 MOL      0.027159
    128 H54        -8.2360    2.8130   -1.8200 hc        1 MOL      0.027159
    129 H55        -9.4670    2.5500    0.4830 ha        1 MOL      0.113238
    130 H56        -9.8520   -0.1900   -2.7710 ha        1 MOL      0.113238
    131 H57       -11.6350    2.1820    1.2060 ha        1 MOL      0.092657
    132 H58       -12.1050   -0.7940   -1.9410 ha        1 MOL      0.092657
    133 H59       -13.1010    0.3530    0.0790 ha        1 MOL      0.100710
    134 N12        -6.7720   -1.1950   -0.8860 n         1 MOL     -0.111895
    135 C45        -6.8620   -2.4680   -0.2300 c3        1 MOL      0.143246
    136 C46        -5.7760   -2.6630    0.8780 c         1 MOL      0.236101
    137 O20        -5.9950   -3.4000    1.8760 o         1 MOL     -0.490201
    138 C47        -6.8380   -3.4500   -1.4050 c3        1 MOL     -0.338941
    139 C48        -6.0650   -2.7620   -2.5700 c3        1 MOL      0.033214
    140 C49        -6.3900   -1.2970   -2.3030 c3        1 MOL      0.027417
    141 H60        -7.8610   -2.5580    0.1920 h1        1 MOL      0.061517
    142 H61        -6.3280   -4.3930   -1.1870 hc        1 MOL      0.101193
    143 H62        -7.9160   -3.5110   -1.5410 hc        1 MOL      0.101193
    144 H63        -5.0130   -2.9790   -2.3810 hc        1 MOL      0.035123
    145 H64        -6.2980   -2.9660   -3.6090 hc        1 MOL      0.035123
    146 H65        -5.5580   -0.6350   -2.5320 h1        1 MOL      0.018855
    147 H66        -7.3220   -0.9580   -2.7520 h1        1 MOL      0.018855
    148 N13        -4.6070   -2.0340    0.7800 n         1 MOL     -0.128506
    149 C50        -3.5710   -2.0870    1.8700 c3        1 MOL     -0.040130
    150 C51        -4.1370   -1.3440    3.0900 c         1 MOL      0.259556
    151 O21        -4.1050   -1.9100    4.2120 o         1 MOL     -0.507191
    152 C52        -2.3760   -1.4150    1.3470 c3        1 MOL      0.121617
    153 C53        -1.6290   -2.2210    0.2630 c3        1 MOL     -0.104888
    154 C54        -0.4580   -1.4810   -0.3950 c         1 MOL      0.754946
    155 O22        -0.3940   -0.2320   -0.4130 o         1 MOL     -0.718778
    156 O23         0.5590   -2.1490   -0.6890 o         1 MOL     -0.718778
    157 H67        -4.4590   -1.5340   -0.0830 hn        1 MOL      0.253102
    158 H68        -3.2900   -3.1170    2.1110 h1        1 MOL      0.106374
    159 H69        -1.7000   -1.3260    2.1990 hc        1 MOL      0.003695
    160 H70        -2.6370   -0.4340    0.9330 hc        1 MOL      0.003695
    161 H71        -2.3720   -2.4170   -0.5100 hc        1 MOL     -0.001983
    162 H72        -1.3220   -3.1860    0.6700 hc        1 MOL     -0.001983
    163 N14        -4.8630   -0.2320    2.8180 n         1 MOL      0.138622
    164 C55        -5.7840    0.4060    3.8070 c3        1 MOL     -0.191789
    165 H73        -6.8120    0.1210    3.5820 h1        1 MOL      0.072695
    166 H74        -5.5270    0.0720    4.8120 h1        1 MOL      0.072695
    167 H75        -5.6870    1.4900    3.7470 h1        1 MOL      0.072695
    168 H76        -4.8130    0.1660    1.8830 hn        1 MOL      0.006840
    169 Ca1         2.0610   -0.0170   -1.4040 Ca        1 MOL      1.758715
    170 O24         0.9670    2.4140   -2.1140 oh        1 MOL     -0.921234
    171 H77         0.4740    2.7890   -2.8460 ho        1 MOL      0.434554
    172 H78         1.4020    3.1680   -1.7060 ho        1 MOL      0.434554
    173 O25         0.9240    0.2060   -3.7460 oh        1 MOL     -0.921234
    174 H79         0.8400    1.0710   -4.1500 ho        1 MOL      0.434554
    175 H80         0.6990   -0.4080   -4.4470 ho        1 MOL      0.434554
@<TRIPOS>BOND
     1    1    2 1   
     2    1    4 1   
     3    1    5 1   
     4    1    6 1   
     5    2    3 2   
     6    2    7 1   
     7    7    8 1   
     8    7   15 1   
     9    8    9 1   
    10    8   11 1   
    11    8   16 1   
    12    9   10 2   
    13    9   19 1   
    14   11   12 1   
    15   11   17 1   
    16   11   18 1   
    17   12   13 1   
    18   12   14 1   
    19   19   20 1   
    20   19   24 1   
    21   20   21 1   
    22   20   23 1   
    23   20   25 1   
    24   21   22 2   
    25   21   29 1   
    26   23   26 1   
    27   23   27 1   
    28   23   28 1   
    29   29   30 1   
    30   29   37 1   
    31   30   31 1   
    32   30   33 1   
    33   30   38 1   
    34   31   32 2   
    35   31   41 1   
    36   33   34 1   
    37   33   39 1   
    38   33   40 1   
    39   34   35 1   
    40   34   36 1   
    41   41   42 1   
    42   41   45 1   
    43   42   43 1   
    44   42   46 1   
    45   42   47 1   
    46   43   44 2   
    47   43   48 1   
    48   48   49 1   
    49   48   56 1   
    50   49   50 1   
    51   49   52 1   
    52   49   57 1   
    53   50   51 2   
    54   50   62 1   
    55   52   53 1   
    56   52   58 1   
    57   52   59 1   
    58   53   54 1   
    59   53   55 2   
    60   54   60 1   
    61   54   61 1   
    62   62   63 1   
    63   62   66 1   
    64   63   64 1   
    65   63   67 1   
    66   63   68 1   
    67   64   65 2   
    68   64   69 1   
    69   69   70 1   
    70   69   76 1   
    71   70   71 1   
    72   70   73 1   
    73   70   77 1   
    74   71   72 2   
    75   71   83 1   
    76   73   74 1   
    77   73   75 1   
    78   73   78 1   
    79   74   80 1   
    80   74   81 1   
    81   74   82 1   
    82   75   79 1   
    83   83   84 1   
    84   83   91 1   
    85   84   85 1   
    86   84   87 1   
    87   84   92 1   
    88   85   86 2   
    89   85  102 1   
    90   87   88 1   
    91   87   89 1   
    92   87   93 1   
    93   88   90 1   
    94   88   94 1   
    95   88   95 1   
    96   89   96 1   
    97   89   97 1   
    98   89   98 1   
    99   90   99 1   
   100   90  100 1   
   101   90  101 1   
   102  102  103 1   
   103  102  110 1   
   104  103  104 1   
   105  103  106 1   
   106  103  111 1   
   107  104  105 2   
   108  104  114 1   
   109  106  107 1   
   110  106  112 1   
   111  106  113 1   
   112  107  108 1   
   113  107  109 1   
   114  114  115 1   
   115  114  125 1   
   116  115  116 1   
   117  115  118 1   
   118  115  126 1   
   119  116  117 2   
   120  116  134 1   
   121  118  119 1   
   122  118  127 1   
   123  118  128 1   
   124  119  120 ar  
   125  119  121 ar  
   126  120  122 ar  
   127  120  129 1   
   128  121  123 ar  
   129  121  130 1   
   130  122  124 ar  
   131  122  131 1   
   132  123  124 ar  
   133  123  132 1   
   134  124  133 1   
   135  134  135 1   
   136  134  140 1   
   137  135  136 1   
   138  135  138 1   
   139  135  141 1   
   140  136  137 2   
   141  136  148 1   
   142  138  139 1   
   143  138  142 1   
   144  138  143 1   
   145  139  140 1   
   146  139  144 1   
   147  139  145 1   
   148  140  146 1   
   149  140  147 1   
   150  148  149 1   
   151  148  157 1   
   152  149  150 1   
   153  149  152 1   
   154  149  158 1   
   155  150  151 2   
   156  150  163 1   
   157  152  153 1   
   158  152  159 1   
   159  152  160 1   
   160  153  154 1   
   161  153  161 1   
   162  153  162 1   
   163  154  155 1   
   164  154  156 1   
   165  163  164 1   
   166  163  168 1   
   167  164  165 1   
   168  164  166 1   
   169  164  167 1   
   170  170  171 1   
   171  170  172 1   
   172  173  174 1   
   173  173  175 1   
@<TRIPOS>SUBSTRUCTURE
     1 MOL         1 TEMP              0 ****  ****    0 ROOT
