@<TRIPOS>MOLECULE
MOL
  189   185     1     0     0
SMALL
resp


@<TRIPOS>ATOM
      1 C1          0.3190    2.4680    5.7730 c3        1 MOL     -0.219113
      2 C2         -0.0300    1.9980    4.3320 c         1 MOL      0.679699
      3 O1          0.8030    2.0430    3.4400 o         1 MOL     -0.584422
      4 H1          1.3890    2.3510    5.9440 hc        1 MOL      0.052431
      5 H2          0.0450    3.5160    5.8910 hc        1 MOL      0.052431
      6 H3         -0.2310    1.8650    6.4960 hc        1 MOL      0.052431
      7 N1         -1.2600    1.5110    4.1480 n         1 MOL     -0.548097
      8 C3         -1.8510    1.4130    2.7480 c3        1 MOL      0.079510
      9 C4         -2.3700    2.8250    2.3100 c         1 MOL      0.343513
     10 O2         -3.3240    3.3380    2.9020 o         1 MOL     -0.529030
     11 C5         -2.9280    0.2900    2.7360 c3        1 MOL     -0.222107
     12 C6         -3.6920    0.2130    1.3860 c         1 MOL      0.798224
     13 O3         -3.0370    0.5120    0.3370 o         1 MOL     -0.704776
     14 O4         -4.8750   -0.1010    1.3700 o         1 MOL     -0.704776
     15 H4         -1.8850    1.5460    4.9390 hn        1 MOL      0.319115
     16 H5         -0.9780    1.2250    2.1340 h1        1 MOL      0.015260
     17 H6         -3.6980    0.4770    3.4820 hc        1 MOL      0.061966
     18 H7         -2.4430   -0.6620    2.9400 hc        1 MOL      0.061966
     19 N2         -1.7740    3.3840    1.2370 n         1 MOL      0.015926
     20 C7         -2.1180    4.7340    0.7460 c3        1 MOL     -0.374287
     21 C8         -2.9880    4.6860   -0.5330 c         1 MOL      0.765136
     22 O5         -3.4230    5.7640   -1.0020 o         1 MOL     -0.650533
     23 C9         -0.8120    5.5390    0.4830 c3        1 MOL      0.235383
     24 C10        -0.0680    6.0000    1.6980 c3        1 MOL     -0.031268
     25 C11        -1.0540    6.8190    2.6450 c3        1 MOL     -0.106406
     26 C12        -1.8930    7.8640    1.8130 c3        1 MOL     -0.020622
     27 N3         -2.2820    8.9290    2.8500 n4        1 MOL     -0.235720
     28 H8         -0.9710    2.8580    0.9260 hn        1 MOL      0.217699
     29 H9         -2.7420    5.2220    1.4960 h1        1 MOL      0.117821
     30 H10        -1.1520    6.3940   -0.1000 hc        1 MOL     -0.049295
     31 H11        -0.1550    4.9500   -0.1540 hc        1 MOL     -0.049295
     32 H12         0.7940    6.6240    1.4750 hc        1 MOL      0.015165
     33 H13         0.2870    5.1540    2.2820 hc        1 MOL      0.015165
     34 H14        -0.5240    7.3010    3.4690 hc        1 MOL      0.056113
     35 H15        -1.6950    6.1430    3.2070 hc        1 MOL      0.056113
     36 H16        -2.7830    7.3290    1.4690 hx        1 MOL      0.104064
     37 H17        -1.2160    8.3690    1.1150 hx        1 MOL      0.104064
     38 H18        -2.7360    9.7270    2.4420 hn        1 MOL      0.289332
     39 H19        -2.8900    8.5260    3.5530 hn        1 MOL      0.289332
     40 H20        -1.4720    9.2620    3.3560 hn        1 MOL      0.289332
     41 N4         -3.4870    3.6060   -1.0610 n         1 MOL     -0.395490
     42 C13        -4.3050    3.5890   -2.2780 c3        1 MOL     -0.134696
     43 C14        -5.5140    2.7460   -2.1740 c         1 MOL      0.590828
     44 O6         -6.3370    2.8690   -3.0970 o         1 MOL     -0.572068
     45 C15        -3.4760    3.4220   -3.5600 c3        1 MOL     -0.095452
     46 C16        -2.3210    2.4870   -3.4830 c         1 MOL      0.842714
     47 O7         -1.3810    2.7060   -4.2460 o         1 MOL     -0.746229
     48 O8         -2.4280    1.4480   -2.7940 o         1 MOL     -0.746229
     49 H21        -3.2360    2.7200   -0.6540 hn        1 MOL      0.143261
     50 H22        -4.5730    4.6220   -2.4530 h1        1 MOL      0.147465
     51 H23        -2.9110    4.3480   -3.7190 hc        1 MOL      0.031450
     52 H24        -4.0310    3.2430   -4.4800 hc        1 MOL      0.031450
     53 N5         -5.8410    2.0760   -1.0760 n         1 MOL     -0.441845
     54 C17        -7.2520    1.6530   -0.8500 c3        1 MOL     -0.072405
     55 C18        -7.5220    0.1570   -0.9770 c         1 MOL      0.485818
     56 O9         -8.5960   -0.3500   -0.7020 o         1 MOL     -0.584467
     57 H25        -5.1260    1.9720   -0.3680 hn        1 MOL      0.343354
     58 H26        -8.0480    2.1530   -1.3960 h1        1 MOL      0.092508
     59 H27        -7.5080    1.8970    0.1870 h1        1 MOL      0.092508
     60 N6         -6.5560   -0.5850   -1.4770 n         1 MOL     -0.154899
     61 C19        -6.6840   -2.0020   -1.8050 c3        1 MOL     -0.273840
     62 C20        -6.6520   -2.9110   -0.5340 c         1 MOL      0.526628
     63 O10        -6.7930   -4.1020   -0.7140 o         1 MOL     -0.544238
     64 C21        -5.5520   -2.3220   -2.8490 c3        1 MOL     -0.046368
     65 C22        -4.1350   -1.9790   -2.4470 c         1 MOL      0.659514
     66 O11        -3.7260   -2.1030   -1.2480 o         1 MOL     -0.725970
     67 O12        -3.3510   -1.4250   -3.2840 o         1 MOL     -0.725970
     68 H28        -5.6230   -0.2140   -1.6240 hn        1 MOL      0.187749
     69 H29        -7.6380   -2.0630   -2.3410 h1        1 MOL      0.163309
     70 H30        -5.7650   -1.9180   -3.8410 hc        1 MOL      0.050844
     71 H31        -5.5500   -3.3910   -3.0090 hc        1 MOL      0.050844
     72 N7         -6.3350   -2.4050    0.6270 n         1 MOL     -0.215756
     73 C23        -6.2630   -3.2040    1.8920 c3        1 MOL     -0.287111
     74 C24        -5.1370   -4.2090    1.9760 c         1 MOL      0.599962
     75 O13        -5.1850   -5.1780    2.6850 o         1 MOL     -0.560624
     76 H32        -6.1560   -1.4090    0.6430 hn        1 MOL      0.291873
     77 H33        -7.1630   -3.8150    1.9880 h1        1 MOL      0.126883
     78 H34        -6.1820   -2.5400    2.7530 h1        1 MOL      0.126883
     79 N8         -4.0610   -3.8820    1.2520 n         1 MOL     -0.158818
     80 C25        -2.7920   -4.6160    0.9700 c3        1 MOL     -0.454310
     81 C26        -1.5530   -3.7120    0.9010 c         1 MOL      0.855907
     82 O14        -1.6170   -2.5830    0.4600 o         1 MOL     -0.649142
     83 C27        -2.8670   -5.5640   -0.2400 c3        1 MOL      0.565211
     84 C28        -4.0430   -6.4920   -0.2380 c3        1 MOL     -0.487249
     85 O15        -3.0490   -4.7920   -1.4180 oh        1 MOL     -0.649222
     86 H35        -4.1620   -3.1000    0.6320 hn        1 MOL      0.125699
     87 H36        -2.5360   -5.2530    1.8270 h1        1 MOL      0.112733
     88 H37        -1.9880   -6.1970   -0.3470 h1        1 MOL     -0.022750
     89 H38        -3.3950   -3.9370   -1.1730 ho        1 MOL      0.442594
     90 H39        -4.4750   -6.6010    0.7630 hc        1 MOL      0.121391
     91 H40        -4.8460   -6.1700   -0.9050 hc        1 MOL      0.121391
     92 H41        -3.7060   -7.4620   -0.6110 hc        1 MOL      0.121391
     93 N9         -0.4110   -4.1860    1.2750 n         1 MOL     -0.746524
     94 C29         0.8420   -3.5200    1.4330 c3        1 MOL      0.399712
     95 C30         1.8490   -4.0110    0.3930 c         1 MOL      0.408428
     96 O16         2.0310   -5.2250    0.2700 o         1 MOL     -0.566355
     97 C31         1.3620   -3.4830    2.9110 c3        1 MOL      0.035308
     98 C32         0.7590   -2.2470    3.5340 c3        1 MOL      0.036528
     99 C33         2.8950   -3.5900    3.0430 c3        1 MOL     -0.152528
    100 C34         1.1820   -2.0230    4.9730 c3        1 MOL     -0.318979
    101 H42        -0.4420   -5.1530    1.5540 hn        1 MOL      0.305337
    102 H43         0.7630   -2.4870    1.1020 h1        1 MOL     -0.132661
    103 H44         0.9870   -4.4250    3.3160 hc        1 MOL      0.016873
    104 H45        -0.3190   -2.4240    3.5880 hc        1 MOL      0.056227
    105 H46         0.9850   -1.3560    2.9350 hc        1 MOL      0.056227
    106 H47         3.3670   -2.7720    2.4940 hc        1 MOL      0.017318
    107 H48         3.2100   -3.5550    4.0950 hc        1 MOL      0.017318
    108 H49         3.2540   -4.5190    2.6120 hc        1 MOL      0.017318
    109 H50         2.0780   -1.3990    4.9160 hc        1 MOL      0.074607
    110 H51         0.3290   -1.5520    5.4620 hc        1 MOL      0.074607
    111 H52         1.3640   -3.0130    5.3740 hc        1 MOL      0.074607
    112 N10         2.5780   -3.0730   -0.1420 n         1 MOL     -0.019936
    113 C35         3.7070   -3.2790   -1.0940 c3        1 MOL     -0.146474
    114 C36         5.0600   -2.8630   -0.4320 c         1 MOL      0.316908
    115 O17         5.2380   -2.6040    0.7520 o         1 MOL     -0.357835
    116 C37         3.5070   -2.2900   -2.2640 c3        1 MOL      0.272362
    117 C38         2.2870   -2.7020   -3.0640 c3        1 MOL     -0.339063
    118 O18         3.2520   -1.0370   -1.6780 oh        1 MOL     -0.552697
    119 H53         2.2440   -2.1230   -0.1440 hn        1 MOL      0.221289
    120 H54         3.7210   -4.2530   -1.5960 h1        1 MOL      0.092622
    121 H55         4.3600   -2.2120   -2.9470 h1        1 MOL      0.045252
    122 H56         2.4280   -1.1550   -1.2020 ho        1 MOL      0.348994
    123 H57         1.4500   -2.8830   -2.3920 hc        1 MOL      0.080792
    124 H58         2.0000   -1.7940   -3.5940 hc        1 MOL      0.080792
    125 H59         2.4860   -3.5630   -3.7090 hc        1 MOL      0.080792
    126 N11         6.0500   -2.8920   -1.3130 n         1 MOL     -0.180925
    127 C39         7.4420   -2.5010   -0.9280 c3        1 MOL     -0.243634
    128 C40         7.6300   -1.0540   -0.5820 c         1 MOL      0.552991
    129 O19         8.3490   -0.7950    0.3980 o         1 MOL     -0.505800
    130 C41         8.3750   -2.8210   -2.1350 c3        1 MOL      0.197772
    131 C42         8.4260   -4.3330   -2.4220 c3        1 MOL     -0.378674
    132 O20         7.8220   -2.2500   -3.3180 oh        1 MOL     -0.656268
    133 H60         5.8490   -3.1270   -2.2720 hn        1 MOL      0.232901
    134 H61         7.8230   -3.1320   -0.1200 h1        1 MOL      0.183575
    135 H62         9.3610   -2.3790   -2.0790 h1        1 MOL      0.092513
    136 H63         8.3350   -2.5690   -4.0660 ho        1 MOL      0.433728
    137 H64         9.0640   -4.7200   -3.2140 hc        1 MOL      0.111395
    138 H65         8.6490   -4.8660   -1.5030 hc        1 MOL      0.111395
    139 H66         7.4590   -4.7400   -2.7390 hc        1 MOL      0.111395
    140 N12         6.8120   -0.0810   -1.1490 n         1 MOL     -0.412227
    141 C43         6.9120    1.3970   -0.7980 c3        1 MOL      0.024808
    142 C44         6.1050    1.7760    0.4890 c         1 MOL      0.297983
    143 O21         6.4560    2.6540    1.3050 o         1 MOL     -0.488807
    144 C45         6.4110    2.2490   -2.0640 c3        1 MOL     -0.057036
    145 C46         5.9200    3.6600   -1.8710 c3        1 MOL     -0.040937
    146 C47         5.7920    4.4390   -3.2030 c3        1 MOL      0.131222
    147 C48         5.1640    5.8670   -3.1440 c3        1 MOL     -0.026586
    148 N13         5.7380    6.7010   -4.2330 n4        1 MOL     -0.296245
    149 H67         6.1780   -0.3310   -1.8910 hn        1 MOL      0.291309
    150 H68         7.9330    1.7600   -0.6390 h1        1 MOL      0.113103
    151 H69         5.6770    1.6700   -2.6230 hc        1 MOL      0.031604
    152 H70         7.2560    2.2560   -2.7480 hc        1 MOL      0.031604
    153 H71         6.6610    4.2680   -1.3570 hc        1 MOL      0.019048
    154 H72         4.9880    3.6120   -1.3230 hc        1 MOL      0.019048
    155 H73         5.2830    3.8350   -3.9550 hc        1 MOL     -0.000089
    156 H74         6.7860    4.4560   -3.6460 hc        1 MOL     -0.000089
    157 H75         5.4500    6.4020   -2.2370 hx        1 MOL      0.102013
    158 H76         4.0820    5.9170   -3.2710 hx        1 MOL      0.102013
    159 H77         6.6460    7.1270   -4.0600 hn        1 MOL      0.300246
    160 H78         5.6540    6.2400   -5.1270 hn        1 MOL      0.300246
    161 H79         5.2010    7.5510   -4.3200 hn        1 MOL      0.300246
    162 N14         5.0680    0.9310    0.6910 n         1 MOL      0.014224
    163 C49         4.2270    0.9660    1.9220 c3        1 MOL     -0.142368
    164 C50         4.8780    0.3710    3.2030 c         1 MOL      0.467344
    165 O22         4.8750    1.0200    4.2690 o         1 MOL     -0.547950
    166 C51         2.8380    0.4450    1.5650 c3        1 MOL     -0.007059
    167 C52         2.1300    1.2930    0.4770 c3        1 MOL     -0.200399
    168 C53         0.9030    0.6270   -0.1560 c         1 MOL      0.791507
    169 O23         0.8320   -0.5740   -0.4220 o         1 MOL     -0.779825
    170 O24         0.0200    1.3460   -0.6610 o         1 MOL     -0.779825
    171 H80         4.9770    0.1020    0.1120 hn        1 MOL      0.045211
    172 H81         4.0510    1.9620    2.3220 h1        1 MOL      0.091182
    173 H82         2.1870    0.3230    2.4220 hc        1 MOL      0.059260
    174 H83         2.8990   -0.5840    1.1930 hc        1 MOL      0.059260
    175 H84         2.7910    1.5050   -0.3750 hc        1 MOL      0.061872
    176 H85         1.7120    2.2090    0.9070 hc        1 MOL      0.061872
    177 N15         5.5290   -0.7540    3.0240 n         1 MOL     -0.050920
    178 C54         6.2360   -1.4910    4.1240 c3        1 MOL     -0.382024
    179 H86         6.8460   -0.7920    4.6950 h1        1 MOL      0.137675
    180 H87         5.5020   -1.9540    4.7830 h1        1 MOL      0.137675
    181 H88         6.8740   -2.2620    3.6930 h1        1 MOL      0.137675
    182 H89         5.4370   -1.2120    2.1240 hn        1 MOL      0.127603
    183 Ca1        -1.5840   -0.6400   -1.5500 Ca        1 MOL      1.795203
    184 O25        -1.0670   -3.3210   -2.4960 oh        1 MOL     -0.797719
    185 H90        -1.2820   -4.2330   -2.2660 ho        1 MOL      0.382945
    186 H91        -0.8450   -3.3550   -3.4310 ho        1 MOL      0.382945
    187 O26        -0.2760   -0.3000   -3.8830 oh        1 MOL     -0.797719
    188 H92        -0.6920    0.5270   -4.1200 ho        1 MOL      0.382945
    189 H93         0.5030   -0.3470   -4.4300 ho        1 MOL      0.382945
@<TRIPOS>BOND
     1    1    2 1   
     2    1    4 1   
     3    1    5 1   
     4    1    6 1   
     5    2    3 2   
     6    2    7 1   
     7    7    8 1   
     8    7   15 1   
     9    8    9 1   
    10    8   11 1   
    11    8   16 1   
    12    9   10 2   
    13    9   19 1   
    14   11   12 1   
    15   11   17 1   
    16   11   18 1   
    17   12   13 1   
    18   12   14 1   
    19   19   20 1   
    20   19   28 1   
    21   20   21 1   
    22   20   23 1   
    23   20   29 1   
    24   21   22 2   
    25   21   41 1   
    26   23   24 1   
    27   23   30 1   
    28   23   31 1   
    29   24   25 1   
    30   24   32 1   
    31   24   33 1   
    32   25   26 1   
    33   25   34 1   
    34   25   35 1   
    35   26   27 1   
    36   26   36 1   
    37   26   37 1   
    38   27   38 1   
    39   27   39 1   
    40   27   40 1   
    41   41   42 1   
    42   41   49 1   
    43   42   43 1   
    44   42   45 1   
    45   42   50 1   
    46   43   44 2   
    47   43   53 1   
    48   45   46 1   
    49   45   51 1   
    50   45   52 1   
    51   46   47 1   
    52   46   48 1   
    53   53   54 1   
    54   53   57 1   
    55   54   55 1   
    56   54   58 1   
    57   54   59 1   
    58   55   56 2   
    59   55   60 1   
    60   60   61 1   
    61   60   68 1   
    62   61   62 1   
    63   61   64 1   
    64   61   69 1   
    65   62   63 2   
    66   62   72 1   
    67   64   65 1   
    68   64   70 1   
    69   64   71 1   
    70   65   66 1   
    71   65   67 1   
    72   72   73 1   
    73   72   76 1   
    74   73   74 1   
    75   73   77 1   
    76   73   78 1   
    77   74   75 2   
    78   74   79 1   
    79   79   80 1   
    80   79   86 1   
    81   80   81 1   
    82   80   83 1   
    83   80   87 1   
    84   81   82 2   
    85   81   93 1   
    86   83   84 1   
    87   83   85 1   
    88   83   88 1   
    89   84   90 1   
    90   84   91 1   
    91   84   92 1   
    92   85   89 1   
    93   93   94 1   
    94   93  101 1   
    95   94   95 1   
    96   94   97 1   
    97   94  102 1   
    98   95   96 2   
    99   95  112 1   
   100   97   98 1   
   101   97   99 1   
   102   97  103 1   
   103   98  100 1   
   104   98  104 1   
   105   98  105 1   
   106   99  106 1   
   107   99  107 1   
   108   99  108 1   
   109  100  109 1   
   110  100  110 1   
   111  100  111 1   
   112  112  113 1   
   113  112  119 1   
   114  113  114 1   
   115  113  116 1   
   116  113  120 1   
   117  114  115 2   
   118  114  126 1   
   119  116  117 1   
   120  116  118 1   
   121  116  121 1   
   122  117  123 1   
   123  117  124 1   
   124  117  125 1   
   125  118  122 1   
   126  126  127 1   
   127  126  133 1   
   128  127  128 1   
   129  127  130 1   
   130  127  134 1   
   131  128  129 2   
   132  128  140 1   
   133  130  131 1   
   134  130  132 1   
   135  130  135 1   
   136  131  137 1   
   137  131  138 1   
   138  131  139 1   
   139  132  136 1   
   140  140  141 1   
   141  140  149 1   
   142  141  142 1   
   143  141  144 1   
   144  141  150 1   
   145  142  143 2   
   146  142  162 1   
   147  144  145 1   
   148  144  151 1   
   149  144  152 1   
   150  145  146 1   
   151  145  153 1   
   152  145  154 1   
   153  146  147 1   
   154  146  155 1   
   155  146  156 1   
   156  147  148 1   
   157  147  157 1   
   158  147  158 1   
   159  148  159 1   
   160  148  160 1   
   161  148  161 1   
   162  162  163 1   
   163  162  171 1   
   164  163  164 1   
   165  163  166 1   
   166  163  172 1   
   167  164  165 2   
   168  164  177 1   
   169  166  167 1   
   170  166  173 1   
   171  166  174 1   
   172  167  168 1   
   173  167  175 1   
   174  167  176 1   
   175  168  169 1   
   176  168  170 1   
   177  177  178 1   
   178  177  182 1   
   179  178  179 1   
   180  178  180 1   
   181  178  181 1   
   182  184  185 1   
   183  184  186 1   
   184  187  188 1   
   185  187  189 1   
@<TRIPOS>SUBSTRUCTURE
     1 MOL         1 TEMP              0 ****  ****    0 ROOT
