@<TRIPOS>MOLECULE
MOL
  179   176     1     0     0
SMALL
resp


@<TRIPOS>ATOM
      1 C1         -2.1730   -2.0810    5.9520 c3        1 MOL     -0.374415
      2 C2         -1.6990   -1.9460    4.4710 c         1 MOL      0.761557
      3 O1         -2.5330   -1.7290    3.6210 o         1 MOL     -0.588394
      4 H1         -2.5710   -1.1260    6.2940 hc        1 MOL      0.100330
      5 H2         -2.9510   -2.8420    6.0170 hc        1 MOL      0.100330
      6 H3         -1.3290   -2.3680    6.5790 hc        1 MOL      0.100330
      7 N1         -0.4040   -2.2270    4.1370 n         1 MOL     -0.614567
      8 C3          0.1500   -2.1800    2.7780 c3        1 MOL     -0.031066
      9 C4          0.0530   -3.4850    2.0340 c         1 MOL      0.580368
     10 O2          0.5700   -4.5240    2.5250 o         1 MOL     -0.565352
     11 C5          1.6540   -1.8950    2.9250 c3        1 MOL     -0.139188
     12 C6          2.4420   -1.5940    1.6420 c         1 MOL      0.798587
     13 O3          3.6210   -1.1790    1.7680 o         1 MOL     -0.757145
     14 O4          2.0120   -1.8470    0.5240 o         1 MOL     -0.757145
     15 H4          0.3040   -2.4830    4.8190 hn        1 MOL      0.340518
     16 H5         -0.2670   -1.3120    2.2720 h1        1 MOL      0.042937
     17 H6          2.0580   -2.6990    3.5310 hc        1 MOL      0.056875
     18 H7          1.7570   -1.0320    3.5750 hc        1 MOL      0.056875
     19 N2         -0.6570   -3.6170    0.8930 n         1 MOL     -0.244142
     20 C7         -0.9340   -4.9390    0.2230 c3        1 MOL     -0.025616
     21 C8          0.1020   -5.4090   -0.8140 c         1 MOL      0.392875
     22 O5         -0.0720   -6.5050   -1.3950 o         1 MOL     -0.531902
     23 C9         -2.3230   -5.0280   -0.3370 c3        1 MOL     -0.044077
     24 C10        -3.4690   -4.4990    0.5850 c3        1 MOL     -0.160112
     25 C11        -4.8310   -4.5530   -0.1500 c3        1 MOL     -0.071357
     26 C12        -5.3000   -5.9380   -0.6110 c3        1 MOL      0.092650
     27 N3         -6.5780   -5.9160   -1.2590 n4        1 MOL     -0.430671
     28 H8         -1.1010   -2.8280    0.4320 hn        1 MOL      0.196003
     29 H9         -0.9270   -5.6600    1.0390 h1        1 MOL      0.090477
     30 H10        -2.4570   -5.9920   -0.8270 hc        1 MOL      0.043561
     31 H11        -2.2950   -4.3560   -1.2020 hc        1 MOL      0.043561
     32 H12        -3.2760   -3.4560    0.8310 hc        1 MOL      0.086540
     33 H13        -3.5480   -5.2350    1.3810 hc        1 MOL      0.086540
     34 H14        -4.8100   -3.8810   -1.0020 hc        1 MOL      0.076402
     35 H15        -5.5580   -4.1840    0.5850 hc        1 MOL      0.076402
     36 H16        -5.4620   -6.5930    0.2440 hx        1 MOL      0.070610
     37 H17        -4.5890   -6.4410   -1.2580 hx        1 MOL      0.070610
     38 H18        -7.3160   -5.6750   -0.6170 hn        1 MOL      0.345225
     39 H19        -6.5530   -5.3370   -2.0910 hn        1 MOL      0.345225
     40 H20        -6.8060   -6.8560   -1.5720 hn        1 MOL      0.345225
     41 N4          1.1620   -4.6040   -1.0900 n         1 MOL     -0.040061
     42 C13         2.3560   -5.0890   -1.7790 c3        1 MOL     -0.109360
     43 C14         3.6520   -4.8620   -0.9400 c         1 MOL      0.484123
     44 O6          4.7330   -5.0980   -1.4730 o         1 MOL     -0.539541
     45 C15         2.5840   -4.7040   -3.2890 c3        1 MOL     -0.015465
     46 C16         2.5540   -3.1890   -3.6260 c         1 MOL      0.679328
     47 O7          2.2370   -2.3010   -2.8370 o         1 MOL     -0.700706
     48 O8          2.7090   -2.9370   -4.8170 o         1 MOL     -0.700706
     49 H21         1.2590   -3.6730   -0.7160 hn        1 MOL     -0.016687
     50 H22         2.1880   -6.1560   -1.7920 h1        1 MOL      0.102243
     51 H23         1.7570   -5.2260   -3.7600 hc        1 MOL      0.020915
     52 H24         3.4920   -5.1370   -3.7000 hc        1 MOL      0.020915
     53 N5          3.6610   -4.3510    0.2670 n         1 MOL     -0.319662
     54 C17         4.8820   -4.1210    1.0850 c3        1 MOL     -0.106394
     55 C18         5.8690   -3.1130    0.5390 c         1 MOL      0.507165
     56 O9          7.0110   -3.0350    1.0140 o         1 MOL     -0.612029
     57 H25         2.8040   -3.8620    0.4770 hn        1 MOL      0.188052
     58 H26         5.3520   -5.1090    1.1590 h1        1 MOL      0.107204
     59 H27         4.5950   -3.8310    2.0990 h1        1 MOL      0.107204
     60 N6          5.5250   -2.3020   -0.3940 n         1 MOL     -0.181284
     61 C19         6.5740   -1.3860   -1.0170 c3        1 MOL     -0.083725
     62 C20         6.8890   -0.1360   -0.0150 c         1 MOL      0.281085
     63 O10         7.6540    0.7680   -0.3610 o         1 MOL     -0.447968
     64 C21         6.0200   -0.8570   -2.3170 c3        1 MOL     -0.326591
     65 C22         4.9720    0.1620   -2.0930 c         1 MOL      0.541188
     66 N7          5.0750    1.3380   -2.6290 n         1 MOL     -0.752317
     67 O11         3.9730   -0.0500   -1.3560 o         1 MOL     -0.558938
     68 H28         4.5620   -2.3150   -0.6800 hn        1 MOL      0.246119
     69 H29         7.4820   -1.9590   -1.1970 h1        1 MOL      0.169509
     70 H30         5.5790   -1.6320   -2.9570 hc        1 MOL      0.140768
     71 H31         6.8570   -0.3180   -2.7600 hc        1 MOL      0.140768
     72 H32         6.0100    1.6360   -2.8460 hn        1 MOL      0.386492
     73 H33         4.2610    1.9410   -2.5890 hn        1 MOL      0.386492
     74 N8          6.2070   -0.0530    1.1370 n         1 MOL      0.019872
     75 C23         6.4050    0.9950    2.1310 c3        1 MOL     -0.388918
     76 C24         5.5330    2.2050    1.9880 c         1 MOL      0.631647
     77 O12         5.8940    3.2500    2.5320 o         1 MOL     -0.547152
     78 H34         5.4780   -0.7270    1.3010 hn        1 MOL      0.237640
     79 H35         7.4270    1.3590    2.2460 h1        1 MOL      0.144904
     80 H36         6.1090    0.5240    3.0640 h1        1 MOL      0.144904
     81 N9          4.3860    2.1380    1.3280 n         1 MOL     -0.344988
     82 C25         3.2790    3.0610    1.2310 c3        1 MOL      0.222329
     83 C26         1.8920    2.4160    1.2890 c         1 MOL      0.377852
     84 O13         1.6800    1.4710    0.4920 o         1 MOL     -0.576677
     85 C27         3.3920    3.8610   -0.0350 c3        1 MOL      0.523300
     86 C28         4.6220    4.6840   -0.2870 ca        1 MOL     -0.272261
     87 C29         5.8470    4.0630   -0.5960 ca        1 MOL     -0.093025
     88 C30         4.5500    6.0590   -0.1460 ca        1 MOL     -0.093025
     89 C31         7.0010    4.8040   -0.8050 ca        1 MOL     -0.200780
     90 C32         5.6690    6.8730   -0.4870 ca        1 MOL     -0.200780
     91 C33         6.8810    6.2030   -0.7970 ca        1 MOL      0.299607
     92 O14         8.0090    6.9330   -1.2250 oh        1 MOL     -0.460224
     93 H37         4.1210    1.2310    0.9740 hn        1 MOL      0.187139
     94 H38         3.3520    3.7140    2.0990 h1        1 MOL     -0.051636
     95 H39         2.5780    4.5800   -0.0200 hc        1 MOL     -0.135216
     96 H40         3.2720    3.1600   -0.8580 hc        1 MOL     -0.135216
     97 H41         5.9080    2.9870   -0.6620 ha        1 MOL      0.099382
     98 H42         3.6290    6.5620    0.1110 ha        1 MOL      0.099382
     99 H43         7.9280    4.3650   -1.1340 ha        1 MOL      0.129330
    100 H44         5.5460    7.9440   -0.6350 ha        1 MOL      0.129330
    101 H45         7.7210    7.8140   -1.4680 ho        1 MOL      0.318718
    102 N10         0.8560    2.9430    1.8700 n         1 MOL     -0.377349
    103 C34        -0.5470    2.4410    1.7060 c3        1 MOL      0.107654
    104 C35        -1.3010    3.3190    0.7300 c         1 MOL      0.394329
    105 O15        -1.0050    4.5230    0.6250 o         1 MOL     -0.565479
    106 C36        -1.2670    2.4120    3.1020 c3        1 MOL      0.018356
    107 C37        -0.3700    1.6900    4.1590 c3        1 MOL      0.263222
    108 C38        -2.7190    1.7950    3.1200 c3        1 MOL     -0.260086
    109 C39        -0.3480    2.2260    5.5490 c3        1 MOL     -0.315769
    110 H46         1.0290    3.8360    2.3270 hn        1 MOL      0.276953
    111 H47        -0.6350    1.4180    1.3390 h1        1 MOL      0.107127
    112 H48        -1.3760    3.4410    3.4490 hc        1 MOL      0.019012
    113 H49         0.6700    1.6350    3.8380 hc        1 MOL     -0.045088
    114 H50        -0.7810    0.6790    4.0980 hc        1 MOL     -0.045088
    115 H51        -3.1070    1.6270    4.1200 hc        1 MOL      0.059932
    116 H52        -3.4940    2.4400    2.7060 hc        1 MOL      0.059932
    117 H53        -2.7750    0.7840    2.7230 hc        1 MOL      0.059932
    118 H54        -1.3920    2.2990    5.8690 hc        1 MOL      0.066074
    119 H55         0.2370    1.5480    6.1740 hc        1 MOL      0.066074
    120 H56         0.0190    3.2570    5.5410 hc        1 MOL      0.066074
    121 N11        -2.2420    2.8230   -0.0180 n         1 MOL     -0.154789
    122 C40        -3.1260    3.6400   -0.9200 c3        1 MOL      0.227060
    123 C41        -4.5850    3.7770   -0.5030 c         1 MOL      0.333731
    124 O16        -4.9330    3.0750    0.4610 o         1 MOL     -0.384106
    125 C42        -2.9640    3.0020   -2.2950 c3        1 MOL     -0.223919
    126 O17        -4.1620    2.2960   -2.6300 oh        1 MOL     -0.246210
    127 H57        -2.2060    1.8220   -0.1550 hn        1 MOL      0.096259
    128 H58        -2.7260    4.6560   -1.0390 h1        1 MOL      0.041429
    129 H59        -2.1550    2.2760   -2.2810 h1        1 MOL      0.104584
    130 H60        -2.8610    3.8450   -2.9700 h1        1 MOL      0.104584
    131 H61        -4.1260    2.1120   -3.5660 ho        1 MOL      0.325613
    132 N12        -5.3790    4.6580   -1.1580 n         1 MOL     -0.461521
    133 C43        -6.7990    4.7940   -0.8260 c3        1 MOL      0.175049
    134 C44        -7.6200    3.5070   -1.2350 c         1 MOL      0.352145
    135 O18        -8.7530    3.2900   -0.8430 o         1 MOL     -0.504567
    136 C45        -7.2100    6.0370   -1.5990 c3        1 MOL     -0.343350
    137 H62        -5.0050    5.0450   -2.0100 hn        1 MOL      0.317586
    138 H63        -6.8470    5.0090    0.2490 h1        1 MOL      0.111879
    139 H64        -8.2910    6.1320   -1.4870 hc        1 MOL      0.108888
    140 H65        -6.8790    6.9480   -1.0930 hc        1 MOL      0.108888
    141 H66        -6.9110    6.0420   -2.6450 hc        1 MOL      0.108888
    142 N13        -7.0410    2.6290   -2.0750 n         1 MOL     -0.191123
    143 C46        -7.5710    1.2600   -2.4150 c3        1 MOL      0.167062
    144 C47        -7.0730    0.2500   -1.4090 c         1 MOL      0.362043
    145 O19        -7.9180   -0.5360   -0.9690 o         1 MOL     -0.537259
    146 C48        -7.2010    0.9670   -3.8710 c3        1 MOL     -0.177527
    147 H67        -6.0650    2.8310   -2.2300 hn        1 MOL     -0.006633
    148 H68        -8.6620    1.2800   -2.4460 h1        1 MOL      0.100602
    149 H69        -7.7800    0.0790   -4.1110 hc        1 MOL      0.046498
    150 H70        -7.4750    1.7320   -4.5890 hc        1 MOL      0.046498
    151 H71        -6.1450    0.6980   -3.9430 hc        1 MOL      0.046498
    152 N14        -5.8160    0.2620   -0.8880 n         1 MOL     -0.101182
    153 C49        -5.2810   -0.7010    0.1480 c3        1 MOL      0.034004
    154 C50        -5.9230   -0.5220    1.5310 c         1 MOL      0.411003
    155 O20        -6.1340   -1.4770    2.2320 o         1 MOL     -0.539474
    156 C51        -3.8120   -0.3940    0.2380 c3        1 MOL     -0.080452
    157 C52        -3.0830   -0.8770   -1.0490 c3        1 MOL      0.046565
    158 C53        -1.5270   -0.8570   -1.0510 c         1 MOL      0.664419
    159 O21        -0.9510    0.2490   -0.9500 o         1 MOL     -0.728133
    160 O22        -0.8040   -1.8690   -1.2800 o         1 MOL     -0.728133
    161 H72        -5.2080    0.9110   -1.3680 hn        1 MOL      0.026096
    162 H73        -5.4870   -1.7460   -0.0980 h1        1 MOL     -0.017815
    163 H74        -3.3960   -0.9900    1.0530 hc        1 MOL      0.090686
    164 H75        -3.6820    0.6820    0.3670 hc        1 MOL      0.090686
    165 H76        -3.5260   -0.2310   -1.8040 hc        1 MOL     -0.050068
    166 H77        -3.4460   -1.8860   -1.2840 hc        1 MOL     -0.050068
    167 N15        -6.1990    0.6730    1.9550 n         1 MOL     -0.030015
    168 C54        -6.9610    1.0790    3.1980 c3        1 MOL     -0.255583
    169 H78        -6.7570    2.1260    3.4220 h1        1 MOL      0.109880
    170 H79        -8.0290    0.9460    3.0300 h1        1 MOL      0.109880
    171 H80        -6.6450    0.4600    4.0380 h1        1 MOL      0.109880
    172 H81        -5.9240    1.4610    1.3720 hn        1 MOL      0.097868
    173 Ca1         1.3810   -0.3590   -1.6140 Ca        1 MOL      1.764380
    174 O23         0.1870    0.1040   -4.0000 oh        1 MOL     -0.837607
    175 H82        -0.6330    0.5160   -4.2680 ho        1 MOL      0.415291
    176 H83         0.3800   -0.5320   -4.6860 ho        1 MOL      0.415291
    177 O24         2.0130    2.0480   -2.7450 oh        1 MOL     -0.837607
    178 H84         2.0260    2.0290   -3.7060 ho        1 MOL      0.415291
    179 H85         1.8590    2.9650   -2.5300 ho        1 MOL      0.415291
@<TRIPOS>BOND
     1    1    2 1   
     2    1    4 1   
     3    1    5 1   
     4    1    6 1   
     5    2    3 2   
     6    2    7 1   
     7    7    8 1   
     8    7   15 1   
     9    8    9 1   
    10    8   11 1   
    11    8   16 1   
    12    9   10 2   
    13    9   19 1   
    14   11   12 1   
    15   11   17 1   
    16   11   18 1   
    17   12   13 1   
    18   12   14 1   
    19   19   20 1   
    20   19   28 1   
    21   20   21 1   
    22   20   23 1   
    23   20   29 1   
    24   21   22 2   
    25   21   41 1   
    26   23   24 1   
    27   23   30 1   
    28   23   31 1   
    29   24   25 1   
    30   24   32 1   
    31   24   33 1   
    32   25   26 1   
    33   25   34 1   
    34   25   35 1   
    35   26   27 1   
    36   26   36 1   
    37   26   37 1   
    38   27   38 1   
    39   27   39 1   
    40   27   40 1   
    41   41   42 1   
    42   41   49 1   
    43   42   43 1   
    44   42   45 1   
    45   42   50 1   
    46   43   44 2   
    47   43   53 1   
    48   45   46 1   
    49   45   51 1   
    50   45   52 1   
    51   46   47 1   
    52   46   48 1   
    53   53   54 1   
    54   53   57 1   
    55   54   55 1   
    56   54   58 1   
    57   54   59 1   
    58   55   56 2   
    59   55   60 1   
    60   60   61 1   
    61   60   68 1   
    62   61   62 1   
    63   61   64 1   
    64   61   69 1   
    65   62   63 2   
    66   62   74 1   
    67   64   65 1   
    68   64   70 1   
    69   64   71 1   
    70   65   66 1   
    71   65   67 2   
    72   66   72 1   
    73   66   73 1   
    74   74   75 1   
    75   74   78 1   
    76   75   76 1   
    77   75   79 1   
    78   75   80 1   
    79   76   77 2   
    80   76   81 1   
    81   81   82 1   
    82   81   93 1   
    83   82   83 1   
    84   82   85 1   
    85   82   94 1   
    86   83   84 2   
    87   83  102 1   
    88   85   86 1   
    89   85   95 1   
    90   85   96 1   
    91   86   87 ar  
    92   86   88 ar  
    93   87   89 ar  
    94   87   97 1   
    95   88   90 ar  
    96   88   98 1   
    97   89   91 ar  
    98   89   99 1   
    99   90   91 ar  
   100   90  100 1   
   101   91   92 1   
   102   92  101 1   
   103  102  103 1   
   104  102  110 1   
   105  103  104 1   
   106  103  106 1   
   107  103  111 1   
   108  104  105 2   
   109  104  121 1   
   110  106  107 1   
   111  106  108 1   
   112  106  112 1   
   113  107  109 1   
   114  107  113 1   
   115  107  114 1   
   116  108  115 1   
   117  108  116 1   
   118  108  117 1   
   119  109  118 1   
   120  109  119 1   
   121  109  120 1   
   122  121  122 1   
   123  121  127 1   
   124  122  123 1   
   125  122  125 1   
   126  122  128 1   
   127  123  124 2   
   128  123  132 1   
   129  125  126 1   
   130  125  129 1   
   131  125  130 1   
   132  126  131 1   
   133  132  133 1   
   134  132  137 1   
   135  133  134 1   
   136  133  136 1   
   137  133  138 1   
   138  134  135 2   
   139  134  142 1   
   140  136  139 1   
   141  136  140 1   
   142  136  141 1   
   143  142  143 1   
   144  142  147 1   
   145  143  144 1   
   146  143  146 1   
   147  143  148 1   
   148  144  145 2   
   149  144  152 1   
   150  146  149 1   
   151  146  150 1   
   152  146  151 1   
   153  152  153 1   
   154  152  161 1   
   155  153  154 1   
   156  153  156 1   
   157  153  162 1   
   158  154  155 2   
   159  154  167 1   
   160  156  157 1   
   161  156  163 1   
   162  156  164 1   
   163  157  158 1   
   164  157  165 1   
   165  157  166 1   
   166  158  159 1   
   167  158  160 1   
   168  167  168 1   
   169  167  172 1   
   170  168  169 1   
   171  168  170 1   
   172  168  171 1   
   173  174  175 1   
   174  174  176 1   
   175  177  178 1   
   176  177  179 1   
@<TRIPOS>SUBSTRUCTURE
     1 MOL         1 TEMP              0 ****  ****    0 ROOT
