@<TRIPOS>MOLECULE
MOL
  179   176     1     0     0
SMALL
resp


@<TRIPOS>ATOM
      1 C1          2.7110    2.8900    4.0800 c3        1 MOL     -0.210288
      2 C2          1.7800    2.8210    2.8430 c         1 MOL      0.555415
      3 O1          2.2220    3.0610    1.6840 o         1 MOL     -0.541652
      4 H1          3.6360    2.3510    3.8690 hc        1 MOL      0.061006
      5 H2          2.9420    3.9320    4.3030 hc        1 MOL      0.061006
      6 H3          2.2140    2.4350    4.9360 hc        1 MOL      0.061006
      7 N1          0.4850    2.5880    3.0650 n         1 MOL     -0.528255
      8 C3         -0.4950    2.4290    1.9990 c3        1 MOL      0.381620
      9 C4         -1.0400    3.7720    1.6120 c         1 MOL      0.323227
     10 O2         -2.2300    4.1650    1.7650 o         1 MOL     -0.413894
     11 C5         -1.6510    1.4490    2.2770 c3        1 MOL     -0.157600
     12 C6         -2.7000    1.2350    1.2010 c         1 MOL      0.475881
     13 O3         -3.9270    1.3320    1.4730 o         1 MOL     -0.590882
     14 O4         -2.3030    1.3960    0.0540 o         1 MOL     -0.590882
     15 H4          0.1930    2.5460    4.0270 hn        1 MOL      0.305866
     16 H5         -0.1130    2.0040    1.0670 h1        1 MOL     -0.051517
     17 H6         -2.1520    1.7990    3.1720 hc        1 MOL      0.016682
     18 H7         -1.1310    0.5300    2.5590 hc        1 MOL      0.016682
     19 N2         -0.1580    4.6350    1.0600 n         1 MOL     -0.408022
     20 C7         -0.4740    5.9900    0.7680 c3        1 MOL     -0.024931
     21 C8         -1.5260    5.9850   -0.3500 c         1 MOL      0.319295
     22 O5         -2.3250    6.9390   -0.4450 o         1 MOL     -0.504015
     23 C9          0.7560    6.7360    0.2790 c3        1 MOL     -0.227513
     24 C10         1.8340    7.0200    1.2380 c3        1 MOL      0.385432
     25 C11         2.9740    7.7400    0.4510 c3        1 MOL     -0.326148
     26 C12         4.2040    7.9890    1.2940 c3        1 MOL      0.110012
     27 N3          4.0630    9.0570    2.3550 n4        1 MOL     -0.539470
     28 H8          0.7550    4.2870    0.8120 hn        1 MOL      0.361475
     29 H9         -0.8610    6.2220    1.7670 h1        1 MOL      0.109949
     30 H10         0.3270    7.6510   -0.1410 hc        1 MOL      0.088772
     31 H11         1.2520    6.1240   -0.4710 hc        1 MOL      0.088772
     32 H12         2.1320    6.0350    1.6030 hc        1 MOL     -0.090443
     33 H13         1.5030    7.6620    2.0550 hc        1 MOL     -0.090443
     34 H14         2.6060    8.7150    0.1190 hc        1 MOL      0.110335
     35 H15         3.2720    7.0740   -0.3610 hc        1 MOL      0.110335
     36 H16         5.0600    8.2150    0.6610 hx        1 MOL      0.100841
     37 H17         4.5730    7.0620    1.7290 hx        1 MOL      0.100841
     38 H18         3.4830    9.7640    1.9420 hn        1 MOL      0.372769
     39 H19         3.5340    8.6940    3.1400 hn        1 MOL      0.372769
     40 H20         4.9220    9.4640    2.6830 hn        1 MOL      0.372769
     41 N4         -1.3810    5.0220   -1.2560 n         1 MOL     -0.169587
     42 C13        -2.2610    4.9810   -2.4000 c3        1 MOL     -0.022474
     43 C14        -3.6950    4.5380   -1.9470 c         1 MOL      0.383976
     44 O6         -4.6220    4.7690   -2.7030 o         1 MOL     -0.519497
     45 C15        -1.7340    4.0090   -3.4780 c3        1 MOL     -0.213136
     46 C16        -1.4940    2.7090   -2.9410 c         1 MOL      0.838918
     47 O7         -0.3760    2.4490   -2.4970 o         1 MOL     -0.720418
     48 O8         -2.4470    1.8490   -3.0720 o         1 MOL     -0.720418
     49 H21        -0.6190    4.3660   -1.1470 hn        1 MOL      0.164166
     50 H22        -2.3230    5.9810   -2.8380 h1        1 MOL      0.110635
     51 H23        -0.7630    4.3700   -3.7870 hc        1 MOL      0.045397
     52 H24        -2.3410    3.9630   -4.3830 hc        1 MOL      0.045397
     53 N5         -3.9430    4.0760   -0.6600 n         1 MOL     -0.008595
     54 C17        -5.2320    3.7780   -0.0610 c3        1 MOL     -0.320275
     55 C18        -5.9570    2.5340   -0.3290 c         1 MOL      0.593221
     56 O9         -7.1510    2.5230    0.0770 o         1 MOL     -0.603097
     57 H25        -3.1690    3.9920   -0.0250 hn        1 MOL      0.124284
     58 H26        -5.9420    4.5680   -0.2840 h1        1 MOL      0.130952
     59 H27        -5.0790    3.8250    1.0120 h1        1 MOL      0.130952
     60 N6         -5.4590    1.6620   -1.1880 n         1 MOL     -0.253197
     61 C19        -6.2390    0.4990   -1.6400 c3        1 MOL     -0.006676
     62 C20        -6.6150   -0.4840   -0.4740 c         1 MOL      0.424890
     63 O10        -7.3910   -1.3700   -0.6710 o         1 MOL     -0.546010
     64 C21        -5.5200   -0.1570   -2.7450 c3        1 MOL     -0.111844
     65 C22        -4.3920   -1.1060   -2.4020 c         1 MOL      0.550225
     66 N7         -4.1900   -2.1530   -3.1690 n         1 MOL     -0.854916
     67 O11        -3.5900   -0.8380   -1.5130 o         1 MOL     -0.425093
     68 H28        -4.5110    1.8300   -1.4830 hn        1 MOL      0.172732
     69 H29        -7.2090    0.8640   -1.9600 h1        1 MOL      0.083993
     70 H30        -5.0500    0.6210   -3.3520 hc        1 MOL      0.059544
     71 H31        -6.2380   -0.7310   -3.3170 hc        1 MOL      0.059544
     72 H32        -4.8840   -2.4030   -3.8560 hn        1 MOL      0.386886
     73 H33        -3.3600   -2.7020   -3.0190 hn        1 MOL      0.386886
     74 N8         -5.9200   -0.3210    0.6750 n         1 MOL     -0.012128
     75 C23        -6.1550   -1.1440    1.8220 c3        1 MOL     -0.463867
     76 C24        -5.1240   -2.2810    2.0100 c         1 MOL      0.597602
     77 O12        -5.3160   -3.1960    2.8040 o         1 MOL     -0.503606
     78 H34        -5.0980    0.2560    0.6500 hn        1 MOL      0.163711
     79 H35        -7.1780   -1.5470    1.8040 h1        1 MOL      0.175811
     80 H36        -6.0530   -0.4590    2.6660 h1        1 MOL      0.175811
     81 N9         -3.9840   -2.2880    1.2620 n         1 MOL     -0.332697
     82 C25        -2.9230   -3.3060    1.4350 c3        1 MOL     -0.142167
     83 C26        -1.5560   -2.6850    1.1690 c         1 MOL      0.666333
     84 O13        -1.2800   -1.9520    0.2200 o         1 MOL     -0.631071
     85 C27        -3.1940   -4.5100    0.4090 c3        1 MOL      0.194719
     86 C28        -4.5800   -5.1360    0.4560 ca        1 MOL     -0.142946
     87 C29        -4.9360   -5.9570    1.5430 ca        1 MOL     -0.099207
     88 C30        -5.5790   -4.6800   -0.4670 ca        1 MOL     -0.099207
     89 C31        -6.2500   -6.4060    1.6490 ca        1 MOL     -0.284959
     90 C32        -6.9450   -5.1430   -0.2960 ca        1 MOL     -0.284959
     91 C33        -7.2620   -6.0840    0.7420 ca        1 MOL      0.348978
     92 O14        -8.5180   -6.5890    0.9110 oh        1 MOL     -0.453098
     93 H37        -4.0200   -1.5870    0.5420 hn        1 MOL      0.217929
     94 H38        -3.0310   -3.6500    2.4640 h1        1 MOL      0.105427
     95 H39        -2.5090   -5.3410    0.5290 hc        1 MOL     -0.022382
     96 H40        -2.9650   -4.2300   -0.6180 hc        1 MOL     -0.022382
     97 H41        -4.0980   -6.1710    2.2020 ha        1 MOL      0.126658
     98 H42        -5.3310   -4.0300   -1.2900 ha        1 MOL      0.126658
     99 H43        -6.5980   -6.9320    2.5370 ha        1 MOL      0.161860
    100 H44        -7.6230   -4.7170   -1.0120 ha        1 MOL      0.161860
    101 H45        -8.9070   -6.2250    0.1110 ho        1 MOL      0.334816
    102 N10        -0.5980   -3.0790    2.0070 n         1 MOL     -0.542152
    103 C34         0.8160   -2.7320    1.9800 c3        1 MOL      0.055961
    104 C35         1.6450   -3.8550    1.3440 c         1 MOL      0.338732
    105 O15         1.4520   -5.0790    1.6020 o         1 MOL     -0.535124
    106 C36         1.2650   -2.4300    3.3830 c3        1 MOL      0.254524
    107 C37         0.4740   -1.1910    3.9720 c3        1 MOL      0.079218
    108 C38         2.7590   -2.1120    3.4320 c3        1 MOL     -0.247244
    109 C39         0.6700   -1.2240    5.5150 c3        1 MOL     -0.331984
    110 H46        -0.8660   -3.6770    2.7700 hn        1 MOL      0.289898
    111 H47         0.8940   -1.8360    1.3560 h1        1 MOL      0.137907
    112 H48         1.0200   -3.3110    3.9850 hc        1 MOL      0.002281
    113 H49        -0.5790   -1.4030    3.7950 hc        1 MOL     -0.003156
    114 H50         0.7900   -0.2610    3.4930 hc        1 MOL     -0.003156
    115 H51         3.2640   -3.0580    3.2440 hc        1 MOL      0.038234
    116 H52         3.0660   -1.4510    2.6310 hc        1 MOL      0.038234
    117 H53         3.1930   -1.9160    4.4130 hc        1 MOL      0.038234
    118 H54         1.7300   -1.2970    5.7570 hc        1 MOL      0.075908
    119 H55         0.3020   -0.3390    6.0300 hc        1 MOL      0.075908
    120 H56         0.2520   -2.1620    5.8730 hc        1 MOL      0.075908
    121 N11         2.5700   -3.3650    0.5360 n         1 MOL      0.005787
    122 C40         3.5060   -4.1930   -0.2820 c3        1 MOL     -0.029759
    123 C41         4.9460   -3.8430    0.0800 c         1 MOL      0.394925
    124 O16         5.2770   -2.9660    0.8270 o         1 MOL     -0.347984
    125 C42         3.1540   -4.0050   -1.7710 c3        1 MOL     -0.167024
    126 O17         3.3520   -2.7340   -2.2360 oh        1 MOL     -0.488471
    127 H57         2.5580   -2.3610    0.4340 hn        1 MOL      0.048769
    128 H58         3.2500   -5.2190   -0.0050 h1        1 MOL      0.087666
    129 H59         2.1340   -4.3460   -1.9570 h1        1 MOL      0.097276
    130 H60         3.7370   -4.6510   -2.4400 h1        1 MOL      0.097276
    131 H61         3.1710   -2.6820   -3.1730 ho        1 MOL      0.409948
    132 N12         5.8330   -4.7000   -0.4710 n         1 MOL     -0.438992
    133 C43         7.3070   -4.5410   -0.3800 c3        1 MOL      0.192776
    134 C44         7.8100   -3.2750   -0.9590 c         1 MOL      0.421425
    135 O18         8.7410   -2.7270   -0.3210 o         1 MOL     -0.496123
    136 C45         8.0440   -5.6720   -1.1100 c3        1 MOL     -0.271072
    137 H62         5.4780   -5.4730   -1.0220 hn        1 MOL      0.278645
    138 H63         7.5660   -4.6080    0.6720 h1        1 MOL      0.077554
    139 H64         7.5770   -6.5910   -0.7420 hc        1 MOL      0.080830
    140 H65         7.8110   -5.7000   -2.1700 hc        1 MOL      0.080830
    141 H66         9.0980   -5.6840   -0.8220 hc        1 MOL      0.080830
    142 N13         7.3200   -2.7520   -2.1470 n         1 MOL     -0.327860
    143 C46         7.8540   -1.5450   -2.7050 c3        1 MOL      0.058538
    144 C47         7.4010   -0.2910   -1.8950 c         1 MOL      0.403746
    145 O19         8.1990    0.4820   -1.4550 o         1 MOL     -0.470587
    146 C48         7.3290   -1.4510   -4.1880 c3        1 MOL     -0.288848
    147 H67         6.6640   -3.3290   -2.6520 hn        1 MOL      0.249651
    148 H68         8.9450   -1.5750   -2.7330 h1        1 MOL      0.093473
    149 H69         7.8760   -0.6360   -4.6510 hc        1 MOL      0.078071
    150 H70         7.4350   -2.3930   -4.7330 hc        1 MOL      0.078071
    151 H71         6.2970   -1.0900   -4.3190 hc        1 MOL      0.078071
    152 N14         6.1340   -0.3440   -1.4010 n         1 MOL     -0.042959
    153 C49         5.5140    0.6120   -0.4840 c3        1 MOL     -0.367639
    154 C50         6.3450    0.7340    0.8490 c         1 MOL      0.469856
    155 O20         6.6950    1.8110    1.3130 o         1 MOL     -0.529169
    156 C51         4.0630    0.3230   -0.2250 c3        1 MOL      0.112607
    157 C52         3.2510    0.5070   -1.4590 c3        1 MOL      0.010083
    158 C53         1.8840    0.0730   -1.4020 c         1 MOL      0.686780
    159 O21         1.1520   -0.0350   -0.3960 o         1 MOL     -0.750126
    160 O22         1.3500   -0.0410   -2.5210 o         1 MOL     -0.750126
    161 H72         5.4750   -1.0360   -1.7290 hn        1 MOL      0.121863
    162 H73         5.6200    1.5730   -1.0060 h1        1 MOL      0.142853
    163 H74         3.5820    0.8950    0.5660 hc        1 MOL      0.029509
    164 H75         3.9950   -0.7300    0.0510 hc        1 MOL      0.029509
    165 H76         3.7300    0.0500   -2.3210 hc        1 MOL     -0.007017
    166 H77         3.2330    1.5830   -1.6060 hc        1 MOL     -0.007017
    167 N15         6.6990   -0.4830    1.3580 n         1 MOL     -0.037616
    168 C54         7.5130   -0.5490    2.6190 c3        1 MOL     -0.316465
    169 H78         8.4980   -0.9580    2.3930 h1        1 MOL      0.118418
    170 H79         7.6220    0.4520    3.0350 h1        1 MOL      0.118418
    171 H80         7.0120   -1.1930    3.3420 h1        1 MOL      0.118418
    172 H81         6.3690   -1.2960    0.8730 hn        1 MOL      0.060846
    173 Ca1        -1.0880   -0.0920   -1.7660 Ca        1 MOL      1.682751
    174 O23        -1.2740   -0.4590   -4.4720 oh        1 MOL     -0.840786
    175 H82        -0.9650    0.0580   -5.2100 ho        1 MOL      0.413641
    176 H83        -1.6450   -1.2490   -4.8740 ho        1 MOL      0.413641
    177 O24        -0.8750   -2.6100   -2.6690 oh        1 MOL     -0.840786
    178 H84        -0.4520   -2.9630   -3.4510 ho        1 MOL      0.413641
    179 H85        -0.7480   -3.2840   -1.9990 ho        1 MOL      0.413641
@<TRIPOS>BOND
     1    1    2 1   
     2    1    4 1   
     3    1    5 1   
     4    1    6 1   
     5    2    3 2   
     6    2    7 1   
     7    7    8 1   
     8    7   15 1   
     9    8    9 1   
    10    8   11 1   
    11    8   16 1   
    12    9   10 2   
    13    9   19 1   
    14   11   12 1   
    15   11   17 1   
    16   11   18 1   
    17   12   13 1   
    18   12   14 1   
    19   19   20 1   
    20   19   28 1   
    21   20   21 1   
    22   20   23 1   
    23   20   29 1   
    24   21   22 2   
    25   21   41 1   
    26   23   24 1   
    27   23   30 1   
    28   23   31 1   
    29   24   25 1   
    30   24   32 1   
    31   24   33 1   
    32   25   26 1   
    33   25   34 1   
    34   25   35 1   
    35   26   27 1   
    36   26   36 1   
    37   26   37 1   
    38   27   38 1   
    39   27   39 1   
    40   27   40 1   
    41   41   42 1   
    42   41   49 1   
    43   42   43 1   
    44   42   45 1   
    45   42   50 1   
    46   43   44 2   
    47   43   53 1   
    48   45   46 1   
    49   45   51 1   
    50   45   52 1   
    51   46   47 1   
    52   46   48 1   
    53   53   54 1   
    54   53   57 1   
    55   54   55 1   
    56   54   58 1   
    57   54   59 1   
    58   55   56 2   
    59   55   60 1   
    60   60   61 1   
    61   60   68 1   
    62   61   62 1   
    63   61   64 1   
    64   61   69 1   
    65   62   63 2   
    66   62   74 1   
    67   64   65 1   
    68   64   70 1   
    69   64   71 1   
    70   65   66 1   
    71   65   67 2   
    72   66   72 1   
    73   66   73 1   
    74   74   75 1   
    75   74   78 1   
    76   75   76 1   
    77   75   79 1   
    78   75   80 1   
    79   76   77 2   
    80   76   81 1   
    81   81   82 1   
    82   81   93 1   
    83   82   83 1   
    84   82   85 1   
    85   82   94 1   
    86   83   84 2   
    87   83  102 1   
    88   85   86 1   
    89   85   95 1   
    90   85   96 1   
    91   86   87 ar  
    92   86   88 ar  
    93   87   89 ar  
    94   87   97 1   
    95   88   90 ar  
    96   88   98 1   
    97   89   91 ar  
    98   89   99 1   
    99   90   91 ar  
   100   90  100 1   
   101   91   92 1   
   102   92  101 1   
   103  102  103 1   
   104  102  110 1   
   105  103  104 1   
   106  103  106 1   
   107  103  111 1   
   108  104  105 2   
   109  104  121 1   
   110  106  107 1   
   111  106  108 1   
   112  106  112 1   
   113  107  109 1   
   114  107  113 1   
   115  107  114 1   
   116  108  115 1   
   117  108  116 1   
   118  108  117 1   
   119  109  118 1   
   120  109  119 1   
   121  109  120 1   
   122  121  122 1   
   123  121  127 1   
   124  122  123 1   
   125  122  125 1   
   126  122  128 1   
   127  123  124 2   
   128  123  132 1   
   129  125  126 1   
   130  125  129 1   
   131  125  130 1   
   132  126  131 1   
   133  132  133 1   
   134  132  137 1   
   135  133  134 1   
   136  133  136 1   
   137  133  138 1   
   138  134  135 2   
   139  134  142 1   
   140  136  139 1   
   141  136  140 1   
   142  136  141 1   
   143  142  143 1   
   144  142  147 1   
   145  143  144 1   
   146  143  146 1   
   147  143  148 1   
   148  144  145 2   
   149  144  152 1   
   150  146  149 1   
   151  146  150 1   
   152  146  151 1   
   153  152  153 1   
   154  152  161 1   
   155  153  154 1   
   156  153  156 1   
   157  153  162 1   
   158  154  155 2   
   159  154  167 1   
   160  156  157 1   
   161  156  163 1   
   162  156  164 1   
   163  157  158 1   
   164  157  165 1   
   165  157  166 1   
   166  158  159 1   
   167  158  160 1   
   168  167  168 1   
   169  167  172 1   
   170  168  169 1   
   171  168  170 1   
   172  168  171 1   
   173  174  175 1   
   174  174  176 1   
   175  177  178 1   
   176  177  179 1   
@<TRIPOS>SUBSTRUCTURE
     1 MOL         1 TEMP              0 ****  ****    0 ROOT
