@<TRIPOS>MOLECULE
MOL
  189   185     1     0     0
SMALL
resp


@<TRIPOS>ATOM
      1 C1          0.2480    2.0460    5.7570 c3        1 MOL     -0.308025
      2 C2         -0.1220    2.1530    4.3210 c         1 MOL      0.718145
      3 O1          0.7440    2.2920    3.4720 o         1 MOL     -0.654631
      4 H1          1.1810    2.5810    5.9330 hc        1 MOL      0.076939
      5 H2         -0.5410    2.4830    6.3690 hc        1 MOL      0.076939
      6 H3          0.3750    0.9970    6.0220 hc        1 MOL      0.076939
      7 N1         -1.3950    1.9510    4.0310 n         1 MOL     -0.577076
      8 C3         -1.9190    1.7770    2.6700 c3        1 MOL      0.266916
      9 C4         -2.4530    3.1180    2.1610 c         1 MOL      0.172852
     10 O2         -3.3280    3.7970    2.7200 o         1 MOL     -0.521612
     11 C5         -2.9560    0.6970    2.6700 c3        1 MOL     -0.449809
     12 C6         -3.7390    0.4160    1.3420 c         1 MOL      0.980085
     13 O3         -4.7770   -0.2230    1.3900 o         1 MOL     -0.787093
     14 O4         -3.3060    0.8350    0.2670 o         1 MOL     -0.787093
     15 H4         -2.0080    1.8590    4.8250 hn        1 MOL      0.323682
     16 H5         -1.1270    1.3850    2.0230 h1        1 MOL      0.061892
     17 H6         -3.7470    0.8630    3.3980 hc        1 MOL      0.103434
     18 H7         -2.3850   -0.2190    2.8160 hc        1 MOL      0.103434
     19 N2         -1.9830    3.4660    0.9940 n         1 MOL      0.021327
     20 C7         -2.1470    4.7330    0.2880 c3        1 MOL      0.048375
     21 C8         -3.1670    4.6460   -0.7850 c         1 MOL      0.611576
     22 O5         -3.3090    5.5780   -1.5860 o         1 MOL     -0.547173
     23 C9         -0.7470    5.1370   -0.1780 c3        1 MOL      0.103067
     24 C10         0.1470    5.6520    0.9380 c3        1 MOL     -0.059136
     25 C11        -0.2960    6.9930    1.6170 c3        1 MOL     -0.275648
     26 C12         0.7640    7.4370    2.6600 c3        1 MOL      0.006020
     27 N3          0.7450    6.5390    3.8590 n4        1 MOL     -0.312513
     28 H8         -1.3740    2.8270    0.5030 hn        1 MOL      0.095658
     29 H9         -2.4540    5.3960    1.0900 h1        1 MOL     -0.010236
     30 H10        -0.9170    5.9990   -0.8280 hc        1 MOL     -0.014376
     31 H11        -0.1480    4.3880   -0.6980 hc        1 MOL     -0.014376
     32 H12         1.1940    5.7020    0.6320 hc        1 MOL      0.059805
     33 H13         0.1820    4.8820    1.7040 hc        1 MOL      0.059805
     34 H14        -1.2990    7.0020    2.0370 hc        1 MOL      0.129315
     35 H15        -0.3460    7.8190    0.9060 hc        1 MOL      0.129315
     36 H16         0.4650    8.4250    3.0230 hx        1 MOL      0.092517
     37 H17         1.7890    7.5380    2.2880 hx        1 MOL      0.092517
     38 H18         1.2420    5.6820    3.6750 hn        1 MOL      0.314936
     39 H19         1.1390    7.0630    4.6200 hn        1 MOL      0.314936
     40 H20        -0.1570    6.2790    4.2400 hn        1 MOL      0.314936
     41 N4         -3.9530    3.5210   -0.7700 n         1 MOL     -0.591203
     42 C13        -4.9320    3.2540   -1.7920 c3        1 MOL      0.140628
     43 C14        -6.3520    2.8060   -1.3080 c         1 MOL      0.403445
     44 O6         -7.3350    3.0850   -1.9800 o         1 MOL     -0.504817
     45 C15        -4.4950    2.2620   -2.8100 c3        1 MOL      0.029634
     46 C16        -3.0820    2.5040   -3.4150 c         1 MOL      0.575434
     47 O7         -2.1240    1.7520   -3.1720 o         1 MOL     -0.608775
     48 O8         -3.0100    3.4320   -4.2990 o         1 MOL     -0.608775
     49 H21        -3.6420    2.8050   -0.1370 hn        1 MOL      0.255044
     50 H22        -5.1720    4.1360   -2.3870 h1        1 MOL      0.060968
     51 H23        -5.2370    2.2890   -3.6000 hc        1 MOL     -0.009523
     52 H24        -4.5200    1.3170   -2.2740 hc        1 MOL     -0.009523
     53 N5         -6.3920    2.1770   -0.1030 n         1 MOL     -0.301352
     54 C17        -7.5660    1.4700    0.4290 c3        1 MOL     -0.214913
     55 C18        -7.8470    0.1180   -0.2500 c         1 MOL      0.477992
     56 O9         -8.9520   -0.4060   -0.0070 o         1 MOL     -0.562970
     57 H25        -5.6250    2.1910    0.5430 hn        1 MOL      0.261020
     58 H26        -8.3680    2.2100    0.3370 h1        1 MOL      0.127507
     59 H27        -7.4560    1.3950    1.5160 h1        1 MOL      0.127507
     60 N6         -6.8860   -0.4100   -1.0450 n         1 MOL     -0.184874
     61 C19        -6.9780   -1.6340   -1.8780 c3        1 MOL     -0.158400
     62 C20        -6.9150   -2.9090   -1.0220 c         1 MOL      0.451961
     63 O10        -7.1750   -4.0190   -1.4750 o         1 MOL     -0.522271
     64 C21        -5.9110   -1.5710   -3.0130 c3        1 MOL     -0.318943
     65 C22        -4.4140   -1.4740   -2.5780 c         1 MOL      0.734203
     66 O11        -3.5410   -1.0640   -3.3920 o         1 MOL     -0.731208
     67 O12        -4.0490   -1.7100   -1.3920 o         1 MOL     -0.731208
     68 H28        -5.9500   -0.0290   -0.9720 hn        1 MOL      0.270086
     69 H29        -7.9630   -1.6480   -2.3380 h1        1 MOL      0.152616
     70 H30        -6.1850   -0.7970   -3.7330 hc        1 MOL      0.120599
     71 H31        -5.8410   -2.5120   -3.5660 hc        1 MOL      0.120599
     72 N7         -6.6970   -2.7130    0.2990 n         1 MOL     -0.165694
     73 C23        -6.6410   -3.7150    1.3090 c3        1 MOL     -0.280678
     74 C24        -5.2920   -4.3860    1.3020 c         1 MOL      0.619610
     75 O13        -5.2260   -5.5280    1.7300 o         1 MOL     -0.570130
     76 H32        -6.3610   -1.7960    0.5300 hn        1 MOL      0.271854
     77 H33        -7.4040   -4.4780    1.1680 h1        1 MOL      0.119549
     78 H34        -6.7180   -3.1880    2.2690 h1        1 MOL      0.119549
     79 N8         -4.2490   -3.7720    0.7640 n         1 MOL     -0.321651
     80 C25        -2.9030   -4.2840    0.6090 c3        1 MOL     -0.273993
     81 C26        -1.7550   -3.2540    0.7990 c         1 MOL      0.676895
     82 O14        -1.8690   -2.1600    0.2430 o         1 MOL     -0.668428
     83 C27        -2.7000   -5.0020   -0.6940 c3        1 MOL      0.572930
     84 C28        -3.3350   -6.3430   -0.9040 c3        1 MOL     -0.571548
     85 O15        -3.2650   -4.2680   -1.7800 oh        1 MOL     -0.693135
     86 H35        -4.3430   -2.8460    0.3890 hn        1 MOL      0.275825
     87 H36        -2.8100   -5.0480    1.3750 h1        1 MOL      0.091040
     88 H37        -1.6200   -5.0880   -0.8430 h1        1 MOL     -0.089044
     89 H38        -3.4860   -3.3800   -1.4750 ho        1 MOL      0.462830
     90 H39        -2.7520   -6.8490   -1.6770 hc        1 MOL      0.155787
     91 H40        -3.3330   -6.9330    0.0140 hc        1 MOL      0.155787
     92 H41        -4.3670   -6.2180   -1.2250 hc        1 MOL      0.155787
     93 N9         -0.6690   -3.6520    1.4490 n         1 MOL     -0.470637
     94 C29         0.5560   -2.8370    1.6720 c3        1 MOL     -0.057741
     95 C30         1.6990   -3.4060    0.8520 c         1 MOL      0.592905
     96 O16         2.0410   -4.5370    1.0140 o         1 MOL     -0.552745
     97 C31         0.9080   -2.7680    3.1760 c3        1 MOL      0.326690
     98 C32        -0.3330   -2.4750    4.0940 c3        1 MOL      0.051626
     99 C33         2.1820   -1.7860    3.3760 c3        1 MOL     -0.525477
    100 C34        -0.0830   -2.7550    5.5330 c3        1 MOL     -0.205382
    101 H42        -0.6150   -4.5820    1.8340 hn        1 MOL      0.269219
    102 H43         0.2960   -1.8300    1.3480 h1        1 MOL      0.155020
    103 H44         1.2500   -3.7540    3.4580 hc        1 MOL     -0.046205
    104 H45        -1.1570   -3.0930    3.7450 hc        1 MOL     -0.010085
    105 H46        -0.6030   -1.4210    4.0140 hc        1 MOL     -0.010085
    106 H47         3.0740   -2.2280    2.9360 hc        1 MOL      0.106321
    107 H48         1.9400   -0.8030    2.9670 hc        1 MOL      0.106321
    108 H49         2.3480   -1.7840    4.4580 hc        1 MOL      0.106321
    109 H50         0.2560   -3.7900    5.5740 hc        1 MOL      0.051137
    110 H51         0.5960   -2.0370    5.9940 hc        1 MOL      0.051137
    111 H52        -1.0260   -2.6140    6.0510 hc        1 MOL      0.051137
    112 N10         2.2930   -2.6060   -0.0500 n         1 MOL     -0.427874
    113 C35         3.5640   -3.0500   -0.7100 c3        1 MOL      0.031198
    114 C36         4.8350   -2.9360    0.1190 c         1 MOL      0.499932
    115 O17         4.8410   -2.1890    1.0700 o         1 MOL     -0.320417
    116 C37         3.7160   -2.2920   -2.0560 c3        1 MOL     -0.184688
    117 C38         2.5100   -2.5150   -2.9980 c3        1 MOL     -0.152975
    118 O18         3.6050   -0.8460   -1.8220 oh        1 MOL     -0.169284
    119 H53         2.0070   -1.6510   -0.2090 hn        1 MOL      0.284840
    120 H54         3.4760   -4.1000   -1.0060 h1        1 MOL      0.106080
    121 H55         4.6420   -2.5460   -2.5720 h1        1 MOL      0.098509
    122 H56         3.2790   -0.4160   -2.6120 ho        1 MOL      0.274864
    123 H57         2.2990   -3.5010   -3.4080 hc        1 MOL      0.062583
    124 H58         1.5860   -2.0940   -2.6010 hc        1 MOL      0.062583
    125 H59         2.7480   -2.0800   -3.9660 hc        1 MOL      0.062583
    126 N11         5.9940   -3.4040   -0.4700 n         1 MOL     -0.459208
    127 C39         7.3030   -3.0350   -0.0240 c3        1 MOL     -0.082770
    128 C40         7.5590   -1.5210   -0.0200 c         1 MOL      0.354294
    129 O19         8.0360   -1.0530    1.0180 o         1 MOL     -0.449942
    130 C41         8.4590   -3.6350   -0.8040 c3        1 MOL      0.605760
    131 C42         9.9340   -3.4750   -0.2810 c3        1 MOL     -0.438208
    132 O20         8.2990   -5.0390   -1.0190 oh        1 MOL     -0.639114
    133 H60         5.8920   -4.0710   -1.2120 hn        1 MOL      0.259941
    134 H61         7.4910   -3.3600    1.0000 h1        1 MOL      0.119738
    135 H62         8.4790   -3.2100   -1.7980 h1        1 MOL     -0.105206
    136 H63         7.8520   -5.1410   -1.8580 ho        1 MOL      0.378096
    137 H64         9.9070   -3.9200    0.7060 hc        1 MOL      0.122789
    138 H65        10.5870   -3.9460   -1.0200 hc        1 MOL      0.122789
    139 H66        10.2140   -2.4260   -0.1860 hc        1 MOL      0.122789
    140 N12         7.1510   -0.8610   -1.1250 n         1 MOL     -0.356484
    141 C43         7.2570    0.5890   -1.1360 c3        1 MOL     -0.094385
    142 C44         6.4260    1.3460   -0.0400 c         1 MOL      0.386061
    143 O21         6.8270    2.3530    0.5200 o         1 MOL     -0.507301
    144 C45         6.8060    0.9980   -2.5290 c3        1 MOL      0.075983
    145 C46         7.1410    2.4390   -2.9190 c3        1 MOL     -0.488640
    146 C47         6.6370    2.7120   -4.3240 c3        1 MOL      0.363165
    147 C48         7.3470    4.0370   -4.6430 c3        1 MOL     -0.197093
    148 N13         6.7700    4.6470   -5.8900 n4        1 MOL     -0.034966
    149 H67         6.6870   -1.2890   -1.9170 hn        1 MOL      0.251094
    150 H68         8.2900    0.8430   -0.9370 h1        1 MOL      0.140875
    151 H69         5.7610    0.7510   -2.6880 hc        1 MOL      0.006880
    152 H70         7.2820    0.3580   -3.2640 hc        1 MOL      0.006880
    153 H71         8.2280    2.4260   -2.9160 hc        1 MOL      0.160251
    154 H72         6.6560    3.1630   -2.2750 hc        1 MOL      0.160251
    155 H73         5.5590    2.8620   -4.4350 hc        1 MOL     -0.042574
    156 H74         6.8140    2.0070   -5.1380 hc        1 MOL     -0.042574
    157 H75         8.4070    3.8610   -4.8490 hx        1 MOL      0.121409
    158 H76         7.0770    4.7770   -3.8930 hx        1 MOL      0.121409
    159 H77         6.9010    4.0470   -6.6970 hn        1 MOL      0.194186
    160 H78         5.7870    4.8510   -5.8930 hn        1 MOL      0.194186
    161 H79         7.1150    5.5420   -6.1940 hn        1 MOL      0.194186
    162 N14         5.2040    0.8770    0.2560 n         1 MOL      0.108007
    163 C49         4.2820    1.5320    1.2050 c3        1 MOL     -0.229918
    164 C50         4.8240    1.3150    2.5800 c         1 MOL      0.444551
    165 O22         4.8430    2.2200    3.4160 o         1 MOL     -0.562539
    166 C51         2.8720    1.0190    1.0220 c3        1 MOL     -0.074738
    167 C52         2.1140    1.6460   -0.1210 c3        1 MOL     -0.358961
    168 C53         0.6830    1.0520   -0.3380 c         1 MOL      0.731398
    169 O23         0.4450   -0.1850   -0.2300 o         1 MOL     -0.735942
    170 O24        -0.3190    1.7600   -0.5990 o         1 MOL     -0.735942
    171 H80         4.9030    0.0470   -0.2370 hn        1 MOL     -0.114822
    172 H81         4.1350    2.6000    1.0950 h1        1 MOL      0.112717
    173 H82         2.2670    1.2360    1.9020 hc        1 MOL      0.150490
    174 H83         2.9640   -0.0500    0.8540 hc        1 MOL      0.150490
    175 H84         2.6190    1.5940   -1.0880 hc        1 MOL      0.085932
    176 H85         1.9850    2.6970    0.1290 hc        1 MOL      0.085932
    177 N15         5.3640    0.1550    2.9030 n         1 MOL      0.034973
    178 C54         6.0330   -0.1730    4.1190 c3        1 MOL     -0.379716
    179 H86         6.8560    0.5240    4.2790 h1        1 MOL      0.122720
    180 H87         5.3320   -0.1030    4.9510 h1        1 MOL      0.122720
    181 H88         6.4250   -1.1880    4.0580 h1        1 MOL      0.122720
    182 H89         5.3360   -0.5880    2.2200 hn        1 MOL      0.117038
    183 Ca1        -1.7410   -0.2540   -1.5630 Ca        1 MOL      1.798144
    184 O25         0.2070   -0.0360   -3.4190 oh        1 MOL     -0.860761
    185 H90         0.1400   -0.5560   -4.2180 ho        1 MOL      0.413529
    186 H91         0.9650    0.5390   -3.5580 ho        1 MOL      0.413529
    187 O26        -0.9940   -2.7060   -2.7330 oh        1 MOL     -0.860761
    188 H92        -0.6540   -3.1980   -3.4740 ho        1 MOL      0.413529
    189 H93        -1.6560   -3.2750   -2.3480 ho        1 MOL      0.413529
@<TRIPOS>BOND
     1    1    2 1   
     2    1    4 1   
     3    1    5 1   
     4    1    6 1   
     5    2    3 2   
     6    2    7 1   
     7    7    8 1   
     8    7   15 1   
     9    8    9 1   
    10    8   11 1   
    11    8   16 1   
    12    9   10 2   
    13    9   19 1   
    14   11   12 1   
    15   11   17 1   
    16   11   18 1   
    17   12   13 1   
    18   12   14 1   
    19   19   20 1   
    20   19   28 1   
    21   20   21 1   
    22   20   23 1   
    23   20   29 1   
    24   21   22 2   
    25   21   41 1   
    26   23   24 1   
    27   23   30 1   
    28   23   31 1   
    29   24   25 1   
    30   24   32 1   
    31   24   33 1   
    32   25   26 1   
    33   25   34 1   
    34   25   35 1   
    35   26   27 1   
    36   26   36 1   
    37   26   37 1   
    38   27   38 1   
    39   27   39 1   
    40   27   40 1   
    41   41   42 1   
    42   41   49 1   
    43   42   43 1   
    44   42   45 1   
    45   42   50 1   
    46   43   44 2   
    47   43   53 1   
    48   45   46 1   
    49   45   51 1   
    50   45   52 1   
    51   46   47 1   
    52   46   48 1   
    53   53   54 1   
    54   53   57 1   
    55   54   55 1   
    56   54   58 1   
    57   54   59 1   
    58   55   56 2   
    59   55   60 1   
    60   60   61 1   
    61   60   68 1   
    62   61   62 1   
    63   61   64 1   
    64   61   69 1   
    65   62   63 2   
    66   62   72 1   
    67   64   65 1   
    68   64   70 1   
    69   64   71 1   
    70   65   66 1   
    71   65   67 1   
    72   72   73 1   
    73   72   76 1   
    74   73   74 1   
    75   73   77 1   
    76   73   78 1   
    77   74   75 2   
    78   74   79 1   
    79   79   80 1   
    80   79   86 1   
    81   80   81 1   
    82   80   83 1   
    83   80   87 1   
    84   81   82 2   
    85   81   93 1   
    86   83   84 1   
    87   83   85 1   
    88   83   88 1   
    89   84   90 1   
    90   84   91 1   
    91   84   92 1   
    92   85   89 1   
    93   93   94 1   
    94   93  101 1   
    95   94   95 1   
    96   94   97 1   
    97   94  102 1   
    98   95   96 2   
    99   95  112 1   
   100   97   98 1   
   101   97   99 1   
   102   97  103 1   
   103   98  100 1   
   104   98  104 1   
   105   98  105 1   
   106   99  106 1   
   107   99  107 1   
   108   99  108 1   
   109  100  109 1   
   110  100  110 1   
   111  100  111 1   
   112  112  113 1   
   113  112  119 1   
   114  113  114 1   
   115  113  116 1   
   116  113  120 1   
   117  114  115 2   
   118  114  126 1   
   119  116  117 1   
   120  116  118 1   
   121  116  121 1   
   122  117  123 1   
   123  117  124 1   
   124  117  125 1   
   125  118  122 1   
   126  126  127 1   
   127  126  133 1   
   128  127  128 1   
   129  127  130 1   
   130  127  134 1   
   131  128  129 2   
   132  128  140 1   
   133  130  131 1   
   134  130  132 1   
   135  130  135 1   
   136  131  137 1   
   137  131  138 1   
   138  131  139 1   
   139  132  136 1   
   140  140  141 1   
   141  140  149 1   
   142  141  142 1   
   143  141  144 1   
   144  141  150 1   
   145  142  143 2   
   146  142  162 1   
   147  144  145 1   
   148  144  151 1   
   149  144  152 1   
   150  145  146 1   
   151  145  153 1   
   152  145  154 1   
   153  146  147 1   
   154  146  155 1   
   155  146  156 1   
   156  147  148 1   
   157  147  157 1   
   158  147  158 1   
   159  148  159 1   
   160  148  160 1   
   161  148  161 1   
   162  162  163 1   
   163  162  171 1   
   164  163  164 1   
   165  163  166 1   
   166  163  172 1   
   167  164  165 2   
   168  164  177 1   
   169  166  167 1   
   170  166  173 1   
   171  166  174 1   
   172  167  168 1   
   173  167  175 1   
   174  167  176 1   
   175  168  169 1   
   176  168  170 1   
   177  177  178 1   
   178  177  182 1   
   179  178  179 1   
   180  178  180 1   
   181  178  181 1   
   182  184  185 1   
   183  184  186 1   
   184  187  188 1   
   185  187  189 1   
@<TRIPOS>SUBSTRUCTURE
     1 MOL         1 TEMP              0 ****  ****    0 ROOT
