@<TRIPOS>MOLECULE
MOL
  189   185     1     0     0
SMALL
resp


@<TRIPOS>ATOM
      1 C1          0.1050   -3.2690    6.2340 c3        1 MOL     -0.409536
      2 C2          0.4760   -2.9360    4.7860 c         1 MOL      0.778759
      3 O1          0.6400   -1.7860    4.4160 o         1 MOL     -0.624404
      4 H1          0.4800   -2.4870    6.8940 hc        1 MOL      0.101790
      5 H2         -0.9790   -3.3320    6.3260 hc        1 MOL      0.101790
      6 H3          0.5490   -4.2240    6.5130 hc        1 MOL      0.101790
      7 N1          0.7670   -3.9560    4.0210 n         1 MOL     -0.662623
      8 C3          1.3830   -3.7990    2.7280 c3        1 MOL      0.433002
      9 C4          0.9580   -4.9030    1.7200 c         1 MOL      0.373702
     10 O2          0.7940   -6.0630    2.0790 o         1 MOL     -0.595529
     11 C5          2.9140   -3.8610    2.9080 c3        1 MOL     -0.181617
     12 C6          3.6220   -3.6060    1.6020 c         1 MOL      0.617181
     13 O3          4.5240   -4.4020    1.3380 o         1 MOL     -0.621016
     14 O4          3.3740   -2.5850    0.8830 o         1 MOL     -0.621016
     15 H4          0.5780   -4.8750    4.4030 hn        1 MOL      0.318715
     16 H5          1.1600   -2.8210    2.2980 h1        1 MOL     -0.168665
     17 H6          3.2770   -4.8020    3.3120 hc        1 MOL      0.035382
     18 H7          3.1960   -3.0620    3.5920 hc        1 MOL      0.035382
     19 N2          0.8880   -4.6220    0.4640 n         1 MOL     -0.110149
     20 C7          0.7990   -5.5420   -0.7010 c3        1 MOL     -0.090654
     21 C8          1.9550   -5.4890   -1.6120 c         1 MOL      0.516313
     22 O5          2.2490   -6.5000   -2.3070 o         1 MOL     -0.601987
     23 C9         -0.4830   -5.3000   -1.5730 c3        1 MOL      0.182937
     24 C10        -1.7970   -4.8190   -0.8300 c3        1 MOL      0.036492
     25 C11        -0.8800   -6.5960   -2.3450 c3        1 MOL     -0.309844
     26 C12        -2.9110   -4.3990   -1.8000 c3        1 MOL     -0.408070
     27 H8          0.7480   -3.6380    0.2790 hn        1 MOL      0.239202
     28 H9          0.6990   -6.5530   -0.3140 h1        1 MOL      0.082572
     29 H10        -0.2040   -4.5100   -2.2720 hc        1 MOL      0.015118
     30 H11        -1.4690   -3.9690   -0.2290 hc        1 MOL      0.007888
     31 H12        -2.1660   -5.5570   -0.1260 hc        1 MOL      0.007888
     32 H13        -0.0330   -7.0700   -2.8330 hc        1 MOL      0.062540
     33 H14        -1.3360   -7.2730   -1.6160 hc        1 MOL      0.062540
     34 H15        -1.6050   -6.3160   -3.1060 hc        1 MOL      0.062540
     35 H16        -3.5150   -5.2550   -2.1060 hc        1 MOL      0.111345
     36 H17        -3.5960   -3.9300   -1.0890 hc        1 MOL      0.111345
     37 H18        -2.5200   -3.7710   -2.6060 hc        1 MOL      0.111345
     38 N3          2.7040   -4.3930   -1.6810 n         1 MOL     -0.163900
     39 C13         3.6590   -4.1530   -2.8510 c3        1 MOL      0.025279
     40 C14         5.0440   -3.6540   -2.4180 c         1 MOL      0.295598
     41 O6          5.9670   -3.4070   -3.2350 o         1 MOL     -0.592196
     42 C15         3.0230   -3.2130   -3.8810 c3        1 MOL     -0.092922
     43 C16         2.4760   -1.8650   -3.3510 c         1 MOL      0.565374
     44 O7          2.9160   -1.4630   -2.1880 o         1 MOL     -0.616293
     45 O8          1.5940   -1.2230   -4.0000 o         1 MOL     -0.616293
     46 H19         2.5010   -3.6130   -1.0630 hn        1 MOL      0.061755
     47 H20         3.8340   -5.0930   -3.3680 h1        1 MOL      0.088389
     48 H21         2.2160   -3.7630   -4.3640 hc        1 MOL      0.035907
     49 H22         3.7350   -3.0310   -4.6980 hc        1 MOL      0.035907
     50 N4          5.2420   -3.3870   -1.2140 n         1 MOL      0.142865
     51 C17         6.5250   -3.0080   -0.5670 c3        1 MOL     -0.208811
     52 C18         7.0960   -1.5860   -0.9150 c         1 MOL      0.465466
     53 O9          8.2940   -1.3510   -0.8850 o         1 MOL     -0.579644
     54 H23         4.4790   -3.6370   -0.5860 hn        1 MOL     -0.042720
     55 H24         7.2830   -3.6910   -0.9430 h1        1 MOL      0.103322
     56 H25         6.5480   -3.2060    0.5120 h1        1 MOL      0.103322
     57 N5          6.2190   -0.6450   -1.3820 n         1 MOL     -0.106627
     58 C19         6.6230    0.5730   -2.1640 c3        1 MOL     -0.013949
     59 C20         7.0500    1.8290   -1.3640 c         1 MOL      0.463860
     60 O10         7.6460    2.7800   -1.8180 o         1 MOL     -0.548585
     61 C21         5.5840    1.0120   -3.2280 c3        1 MOL     -0.304519
     62 C22         4.2050    1.4350   -2.5710 c         1 MOL      0.762655
     63 O11         4.1360    1.3370   -1.3670 o         1 MOL     -0.705449
     64 O12         3.2720    1.9100   -3.3600 o         1 MOL     -0.705449
     65 H26         5.2620   -0.9560   -1.3750 hn        1 MOL      0.101162
     66 H27         7.5530    0.4180   -2.7040 h1        1 MOL      0.098859
     67 H28         5.3810    0.2210   -3.9450 hc        1 MOL      0.086689
     68 H29         6.0300    1.8070   -3.8150 hc        1 MOL      0.086689
     69 N6          6.9160    1.6610   -0.0270 n         1 MOL     -0.341418
     70 C23         7.2780    2.7170    0.9450 c3        1 MOL     -0.131736
     71 C24         6.0870    3.5280    1.4140 c         1 MOL      0.511716
     72 O13         6.2670    4.3780    2.2430 o         1 MOL     -0.604880
     73 H30         6.4000    0.8200    0.1930 hn        1 MOL      0.246561
     74 H31         8.0370    3.4340    0.6310 h1        1 MOL      0.101931
     75 H32         7.6640    2.1830    1.8110 h1        1 MOL      0.101931
     76 N7          4.8620    3.3570    0.8450 n         1 MOL     -0.203960
     77 C25         3.7030    4.2180    1.1430 c3        1 MOL     -0.001362
     78 C26         2.4160    3.3720    1.3730 c         1 MOL      0.300579
     79 O14         2.3710    2.2360    0.9360 o         1 MOL     -0.456292
     80 C27         3.5030    5.2910   -0.0190 c3        1 MOL      0.006750
     81 C28         4.7060    6.1190   -0.3150 c3        1 MOL     -0.091249
     82 C29         4.5650    7.1210   -1.4800 c         1 MOL      0.502129
     83 N8          4.8430    6.8650   -2.7590 n         1 MOL     -0.659075
     84 O15         4.0990    8.2180   -1.2170 o         1 MOL     -0.549541
     85 H33         4.7820    2.6130    0.1720 hn        1 MOL      0.230027
     86 H34         3.7830    4.7490    2.0950 h1        1 MOL      0.046355
     87 H35         2.7130    5.9640    0.3290 hc        1 MOL      0.036868
     88 H36         3.2260    4.6830   -0.8810 hc        1 MOL      0.036868
     89 H37         5.5510    5.4420   -0.3740 hc        1 MOL      0.047131
     90 H38         4.8450    6.7300    0.5850 hc        1 MOL      0.047131
     91 H39         5.4070    6.0450   -2.9750 hn        1 MOL      0.325117
     92 H40         4.9400    7.6870   -3.3380 hn        1 MOL      0.325117
     93 N9          1.4210    3.8570    2.0900 n         1 MOL     -0.259841
     94 C30         0.2240    3.1380    2.4470 c3        1 MOL      0.137791
     95 C31        -0.8210    3.5570    1.4530 c         1 MOL      0.302644
     96 O16        -1.1340    4.6650    1.1890 o         1 MOL     -0.574170
     97 C32        -0.1640    3.6260    3.8530 c3        1 MOL      0.112529
     98 C33        -1.3350    2.8450    4.3480 c3        1 MOL     -0.195052
     99 C34         0.8530    3.5270    4.9410 c3        1 MOL     -0.195052
    100 H41         1.3330    4.8370    2.3330 hn        1 MOL      0.248437
    101 H42         0.3620    2.0550    2.4410 h1        1 MOL      0.107677
    102 H43        -0.2840    4.6900    3.6380 hc        1 MOL     -0.007254
    103 H44        -1.2230    1.7640    4.2230 hc        1 MOL      0.037175
    104 H45        -1.5170    3.0110    5.4000 hc        1 MOL      0.037175
    105 H46        -2.2440    3.2070    3.8680 hc        1 MOL      0.037175
    106 H47         1.7900    4.0100    4.6860 hc        1 MOL      0.037175
    107 H48         0.4790    3.7370    5.9440 hc        1 MOL      0.037175
    108 H49         1.2670    2.5180    5.0110 hc        1 MOL      0.037175
    109 N10        -1.3360    2.6020    0.7710 n         1 MOL      0.034768
    110 C35        -2.4450    2.6810   -0.1520 c3        1 MOL      0.104222
    111 C36        -3.8310    2.6340    0.5510 c         1 MOL      0.230190
    112 O17        -3.9710    2.2080    1.6860 o         1 MOL     -0.289343
    113 C37        -2.2300    1.6040   -1.1940 c3        1 MOL     -0.291542
    114 C38        -3.1320    1.7520   -2.4070 c         1 MOL      0.685673
    115 N11        -3.1050    2.7670   -3.2410 n         1 MOL     -0.734598
    116 O18        -3.9640    0.9200   -2.6810 o         1 MOL     -0.518285
    117 H50        -0.8890    1.7020    0.8500 hn        1 MOL      0.029426
    118 H51        -2.4120    3.6440   -0.6560 h1        1 MOL      0.028355
    119 H52        -2.2530    0.5720   -0.8610 hc        1 MOL      0.117792
    120 H53        -1.2060    1.6860   -1.5670 hc        1 MOL      0.117792
    121 H54        -2.5190    3.5650   -3.0650 hn        1 MOL      0.329518
    122 H55        -3.8330    2.7670   -3.9440 hn        1 MOL      0.329518
    123 N12        -4.8830    3.0810   -0.2020 n         1 MOL     -0.223827
    124 C39        -6.2180    2.8240    0.2360 c3        1 MOL      0.206813
    125 C40        -6.6270    1.4300    0.5860 c         1 MOL      0.271219
    126 O19        -7.5090    1.1710    1.4410 o         1 MOL     -0.547906
    127 C41        -7.2710    3.4130   -0.7960 c3        1 MOL     -0.243282
    128 C42        -7.1630    2.8310   -2.1480 ca        1 MOL      0.284150
    129 C43        -6.3910    3.5230   -3.1540 ca        1 MOL     -0.314244
    130 C44        -8.0150    1.8210   -2.5430 ca        1 MOL     -0.314244
    131 C45        -6.1870    2.8980   -4.3910 ca        1 MOL     -0.191695
    132 C46        -7.8110    1.2360   -3.7900 ca        1 MOL     -0.191695
    133 C47        -6.9080    1.7350   -4.7040 ca        1 MOL      0.309088
    134 O20        -6.8120    1.2120   -5.9350 oh        1 MOL     -0.547855
    135 H56        -4.6650    3.4230   -1.1320 hn        1 MOL      0.129840
    136 H57        -6.3470    3.2900    1.2180 h1        1 MOL      0.015965
    137 H58        -7.0130    4.4790   -0.8500 hc        1 MOL      0.055046
    138 H59        -8.2970    3.2710   -0.4430 hc        1 MOL      0.055046
    139 H60        -6.1280    4.5360   -2.9090 ha        1 MOL      0.169527
    140 H61        -8.7660    1.5010   -1.8360 ha        1 MOL      0.169527
    141 H62        -5.7010    3.3750   -5.2340 ha        1 MOL      0.124241
    142 H63        -8.4320    0.3700   -4.0260 ha        1 MOL      0.124241
    143 H64        -7.4740    0.5260   -6.0770 ho        1 MOL      0.413810
    144 N13        -6.0930    0.4540   -0.1310 n         1 MOL      0.092330
    145 C48        -6.3050   -0.9840    0.1980 c3        1 MOL     -0.164509
    146 C49        -5.5470   -1.4090    1.4470 c         1 MOL      0.411999
    147 O21        -5.7460   -2.5690    1.9080 o         1 MOL     -0.558549
    148 C50        -5.7690   -1.8370   -0.9080 c3        1 MOL      0.166616
    149 C51        -6.5500   -1.7130   -2.1080 c3        1 MOL     -0.229557
    150 C52        -8.0610   -2.1640   -1.9230 c         1 MOL      0.612597
    151 O22        -8.3900   -3.3490   -1.6360 o         1 MOL     -0.685804
    152 O23        -8.9270   -1.3040   -2.1410 o         1 MOL     -0.685804
    153 H65        -5.4970    0.7280   -0.8910 hn        1 MOL      0.091732
    154 H66        -7.3270   -1.2260    0.4800 h1        1 MOL      0.175095
    155 H67        -5.8820   -2.8680   -0.5910 hc        1 MOL     -0.029473
    156 H68        -4.7370   -1.6260   -1.1810 hc        1 MOL     -0.029473
    157 H69        -6.1650   -2.1440   -3.0230 hc        1 MOL      0.053304
    158 H70        -6.5030   -0.6510   -2.3720 hc        1 MOL      0.053304
    159 N14        -4.5930   -0.7120    1.9940 n         1 MOL     -0.077655
    160 C53        -3.7560   -1.2270    3.0780 c3        1 MOL      0.004614
    161 C54        -4.0950   -0.4700    4.3540 c         1 MOL      0.445296
    162 O24        -4.3110   -1.0430    5.4110 o         1 MOL     -0.560029
    163 C55        -2.3080   -0.9230    2.6740 c3        1 MOL      0.010145
    164 C56        -1.7960   -1.6550    1.4400 c3        1 MOL      0.014122
    165 C57        -0.4970   -1.1560    0.8160 c         1 MOL      0.861447
    166 O25         0.3380   -1.9190    0.2250 o         1 MOL     -0.772603
    167 O26        -0.1140    0.0670    0.7860 o         1 MOL     -0.772603
    168 H71        -4.4360    0.1980    1.5930 hn        1 MOL     -0.025220
    169 H72        -3.8580   -2.2970    3.2540 h1        1 MOL      0.072804
    170 H73        -1.6480   -1.1330    3.5100 hc        1 MOL      0.013932
    171 H74        -2.2040    0.1560    2.5380 hc        1 MOL      0.013932
    172 H75        -2.5600   -1.8040    0.6770 hc        1 MOL     -0.018868
    173 H76        -1.5090   -2.6530    1.7570 hc        1 MOL     -0.018868
    174 N15        -4.2960    0.8360    4.2150 n         1 MOL     -0.080557
    175 C58        -5.0390    1.6630    5.2220 c3        1 MOL     -0.248467
    176 H77        -4.3930    1.8570    6.0790 h1        1 MOL      0.099156
    177 H78        -5.3340    2.6100    4.7690 h1        1 MOL      0.099156
    178 H79        -5.9280    1.1250    5.5510 h1        1 MOL      0.099156
    179 H80        -3.9110    1.2540    3.3770 hn        1 MOL      0.055788
    180 Ca1         2.3840   -0.2880    0.0420 Ca        1 MOL      1.714269
    181 O27         2.0040   -0.1310    2.8570 oh        1 MOL     -0.885569
    182 O28         1.3150    0.8490   -2.0750 oh        1 MOL     -0.885569
    183 H81         2.4490    0.3950    3.5200 ho        1 MOL      0.411843
    184 H82         1.9910    1.5070   -2.2150 ho        1 MOL      0.411843
    185 H83         1.4270   -0.7040    3.3530 ho        1 MOL      0.411843
    186 H84         1.4870    0.1910   -2.7410 ho        1 MOL      0.411843
    187 O29         4.6090    0.2640    1.7840 oh        1 MOL     -0.885569
    188 H85         4.0940    0.5290    2.5440 ho        1 MOL      0.411843
    189 H86         5.2040   -0.4110    2.1180 ho        1 MOL      0.411843
@<TRIPOS>BOND
     1    1    2 1   
     2    1    4 1   
     3    1    5 1   
     4    1    6 1   
     5    2    3 2   
     6    2    7 1   
     7    7    8 1   
     8    7   15 1   
     9    8    9 1   
    10    8   11 1   
    11    8   16 1   
    12    9   10 2   
    13    9   19 1   
    14   11   12 1   
    15   11   17 1   
    16   11   18 1   
    17   12   13 1   
    18   12   14 1   
    19   19   20 1   
    20   19   27 1   
    21   20   21 1   
    22   20   23 1   
    23   20   28 1   
    24   21   22 2   
    25   21   38 1   
    26   23   24 1   
    27   23   25 1   
    28   23   29 1   
    29   24   26 1   
    30   24   30 1   
    31   24   31 1   
    32   25   32 1   
    33   25   33 1   
    34   25   34 1   
    35   26   35 1   
    36   26   36 1   
    37   26   37 1   
    38   38   39 1   
    39   38   46 1   
    40   39   40 1   
    41   39   42 1   
    42   39   47 1   
    43   40   41 2   
    44   40   50 1   
    45   42   43 1   
    46   42   48 1   
    47   42   49 1   
    48   43   44 1   
    49   43   45 1   
    50   50   51 1   
    51   50   54 1   
    52   51   52 1   
    53   51   55 1   
    54   51   56 1   
    55   52   53 2   
    56   52   57 1   
    57   57   58 1   
    58   57   65 1   
    59   58   59 1   
    60   58   61 1   
    61   58   66 1   
    62   59   60 2   
    63   59   69 1   
    64   61   62 1   
    65   61   67 1   
    66   61   68 1   
    67   62   63 1   
    68   62   64 1   
    69   69   70 1   
    70   69   73 1   
    71   70   71 1   
    72   70   74 1   
    73   70   75 1   
    74   71   72 2   
    75   71   76 1   
    76   76   77 1   
    77   76   85 1   
    78   77   78 1   
    79   77   80 1   
    80   77   86 1   
    81   78   79 2   
    82   78   93 1   
    83   80   81 1   
    84   80   87 1   
    85   80   88 1   
    86   81   82 1   
    87   81   89 1   
    88   81   90 1   
    89   82   83 1   
    90   82   84 2   
    91   83   91 1   
    92   83   92 1   
    93   93   94 1   
    94   93  100 1   
    95   94   95 1   
    96   94   97 1   
    97   94  101 1   
    98   95   96 2   
    99   95  109 1   
   100   97   98 1   
   101   97   99 1   
   102   97  102 1   
   103   98  103 1   
   104   98  104 1   
   105   98  105 1   
   106   99  106 1   
   107   99  107 1   
   108   99  108 1   
   109  109  110 1   
   110  109  117 1   
   111  110  111 1   
   112  110  113 1   
   113  110  118 1   
   114  111  112 2   
   115  111  123 1   
   116  113  114 1   
   117  113  119 1   
   118  113  120 1   
   119  114  115 1   
   120  114  116 2   
   121  115  121 1   
   122  115  122 1   
   123  123  124 1   
   124  123  135 1   
   125  124  125 1   
   126  124  127 1   
   127  124  136 1   
   128  125  126 2   
   129  125  144 1   
   130  127  128 1   
   131  127  137 1   
   132  127  138 1   
   133  128  129 ar  
   134  128  130 ar  
   135  129  131 ar  
   136  129  139 1   
   137  130  132 ar  
   138  130  140 1   
   139  131  133 ar  
   140  131  141 1   
   141  132  133 ar  
   142  132  142 1   
   143  133  134 1   
   144  134  143 1   
   145  144  145 1   
   146  144  153 1   
   147  145  146 1   
   148  145  148 1   
   149  145  154 1   
   150  146  147 2   
   151  146  159 1   
   152  148  149 1   
   153  148  155 1   
   154  148  156 1   
   155  149  150 1   
   156  149  157 1   
   157  149  158 1   
   158  150  151 1   
   159  150  152 1   
   160  159  160 1   
   161  159  168 1   
   162  160  161 1   
   163  160  163 1   
   164  160  169 1   
   165  161  162 2   
   166  161  174 1   
   167  163  164 1   
   168  163  170 1   
   169  163  171 1   
   170  164  165 1   
   171  164  172 1   
   172  164  173 1   
   173  165  166 1   
   174  165  167 1   
   175  174  175 1   
   176  174  179 1   
   177  175  176 1   
   178  175  177 1   
   179  175  178 1   
   180  181  183 1   
   181  181  185 1   
   182  182  184 1   
   183  182  186 1   
   184  187  188 1   
   185  187  189 1   
@<TRIPOS>SUBSTRUCTURE
     1 MOL         1 TEMP              0 ****  ****    0 ROOT
