@<TRIPOS>MOLECULE
MOL
  179   176     1     0     0
SMALL
resp


@<TRIPOS>ATOM
      1 C1         -1.6560   -2.2050    6.4110 c3        1 MOL     -0.229748
      2 C2         -1.2930   -1.9530    4.9520 c         1 MOL      0.762583
      3 O1         -2.1700   -1.7690    4.1010 o         1 MOL     -0.599026
      4 H1         -2.7360   -2.3210    6.5000 hc        1 MOL      0.054791
      5 H2         -1.1630   -3.1120    6.7580 hc        1 MOL      0.054791
      6 H3         -1.3320   -1.3590    7.0170 hc        1 MOL      0.054791
      7 N1          0.0590   -1.9350    4.7280 n         1 MOL     -0.622199
      8 C3          0.6110   -1.8750    3.3340 c3        1 MOL     -0.016044
      9 C4          0.4680   -3.2730    2.6830 c         1 MOL      0.616519
     10 O2          1.1110   -4.2220    3.1490 o         1 MOL     -0.560914
     11 C5          2.0940   -1.2870    3.2470 c3        1 MOL      0.133391
     12 C6          2.7010   -1.3790    1.8250 c         1 MOL      0.553192
     13 O3          3.9090   -1.0920    1.7230 o         1 MOL     -0.665205
     14 O4          2.0250   -1.7780    0.8400 o         1 MOL     -0.665205
     15 H4          0.7480   -1.8850    5.4740 hn        1 MOL      0.338219
     16 H5          0.1040   -1.1200    2.7280 h1        1 MOL     -0.018126
     17 H6          2.7580   -1.7800    3.9600 hc        1 MOL     -0.011545
     18 H7          2.1120   -0.2460    3.5830 hc        1 MOL     -0.011545
     19 N2         -0.3870   -3.4120    1.6520 n         1 MOL     -0.276098
     20 C7         -0.7470   -4.6400    0.8890 c3        1 MOL     -0.343474
     21 C8          0.3510   -5.3270    0.0070 c         1 MOL      0.682180
     22 O5          0.1320   -6.4790   -0.2940 o         1 MOL     -0.572225
     23 C9         -1.9740   -4.2700    0.0580 c3        1 MOL      0.130375
     24 C10        -2.8090   -5.5170   -0.2970 c3        1 MOL     -0.160263
     25 C11        -3.8420   -5.3370   -1.3780 c3        1 MOL     -0.086196
     26 C12        -4.8560   -6.5500   -1.4270 c3        1 MOL      0.065668
     27 N3         -5.6690   -6.3380   -2.6190 n4        1 MOL     -0.282244
     28 H8         -0.8830   -2.6150    1.2970 hn        1 MOL      0.229604
     29 H9         -0.9640   -5.3740    1.6620 h1        1 MOL      0.142073
     30 H10        -1.5760   -3.8380   -0.8600 hc        1 MOL      0.108163
     31 H11        -2.5970   -3.6390    0.6880 hc        1 MOL      0.108163
     32 H12        -3.3120   -5.8010    0.6190 hc        1 MOL      0.049289
     33 H13        -2.2180   -6.3620   -0.6540 hc        1 MOL      0.049289
     34 H14        -3.3900   -5.1300   -2.3440 hc        1 MOL      0.059898
     35 H15        -4.4050   -4.4410   -1.0920 hc        1 MOL      0.059898
     36 H16        -5.3670   -6.6480   -0.4760 hx        1 MOL      0.086561
     37 H17        -4.4660   -7.5320   -1.6940 hx        1 MOL      0.086561
     38 H18        -5.1020   -6.2400   -3.4490 hn        1 MOL      0.302054
     39 H19        -6.3690   -7.0590   -2.6730 hn        1 MOL      0.302054
     40 H20        -6.0700   -5.4050   -2.5330 hn        1 MOL      0.302054
     41 N4          1.5340   -4.7920   -0.2290 n         1 MOL     -0.373803
     42 C13         2.6610   -5.3960   -0.9640 c3        1 MOL     -0.104849
     43 C14         4.0750   -4.8460   -0.4820 c         1 MOL      0.464011
     44 O6          5.0920   -5.0120   -1.1520 o         1 MOL     -0.521360
     45 C15         2.6000   -5.1060   -2.4940 c3        1 MOL      0.007182
     46 C16         2.4130   -3.6440   -2.9480 c         1 MOL      0.657452
     47 O7          2.2020   -3.4070   -4.1900 o         1 MOL     -0.682567
     48 O8          2.5020   -2.7380   -2.0820 o         1 MOL     -0.682567
     49 H21         1.5630   -3.8360    0.1130 hn        1 MOL      0.142630
     50 H22         2.6990   -6.4730   -0.8240 h1        1 MOL      0.135181
     51 H23         1.6890   -5.6580   -2.7430 hc        1 MOL      0.016662
     52 H24         3.3720   -5.6380   -3.0650 hc        1 MOL      0.016662
     53 N5          4.1230   -4.2710    0.6870 n         1 MOL     -0.206424
     54 C17         5.2750   -3.8900    1.4010 c3        1 MOL     -0.264527
     55 C18         6.1560   -2.7990    0.6720 c         1 MOL      0.524832
     56 O9          7.3500   -2.6300    0.9640 o         1 MOL     -0.570542
     57 H25         3.2010   -4.1390    1.0680 hn        1 MOL      0.234088
     58 H26         5.9330   -4.7340    1.6140 h1        1 MOL      0.132981
     59 H27         4.8480   -3.4510    2.3050 h1        1 MOL      0.132981
     60 N6          5.5590   -2.1580   -0.3380 n         1 MOL     -0.161347
     61 C19         6.2980   -1.1920   -1.2080 c3        1 MOL     -0.017324
     62 C20         6.5850    0.1460   -0.4810 c         1 MOL      0.358734
     63 O10         7.4700    0.8200   -0.9560 o         1 MOL     -0.509793
     64 C21         5.4160   -1.0300   -2.4820 c3        1 MOL     -0.210765
     65 C22         4.5870    0.2180   -2.6580 c         1 MOL      0.722468
     66 N7          4.7850    0.9030   -3.7680 n         1 MOL     -0.627699
     67 O11         3.7580    0.5550   -1.7530 o         1 MOL     -0.709592
     68 H28         4.5820   -2.4070   -0.4720 hn        1 MOL      0.134855
     69 H29         7.2120   -1.6900   -1.5080 h1        1 MOL      0.126622
     70 H30         4.8550   -1.9590   -2.5770 hc        1 MOL      0.078851
     71 H31         6.1710   -0.9480   -3.2690 hc        1 MOL      0.078851
     72 H32         5.4100    0.6370   -4.5110 hn        1 MOL      0.332996
     73 H33         4.0380    1.5490   -3.9800 hn        1 MOL      0.332996
     74 N8          5.9820    0.4820    0.6890 n         1 MOL     -0.034092
     75 C23         6.3770    1.5720    1.5750 c3        1 MOL     -0.367803
     76 C24         5.3000    2.6710    1.6150 c         1 MOL      0.588175
     77 O12         5.5780    3.7310    2.1260 o         1 MOL     -0.557299
     78 H34         5.1950   -0.0770    0.9820 hn        1 MOL      0.201783
     79 H35         7.3080    1.9890    1.1870 h1        1 MOL      0.160980
     80 H36         6.5030    1.1550    2.5720 h1        1 MOL      0.160980
     81 N9          4.2000    2.5770    0.9200 n         1 MOL     -0.294607
     82 C25         3.1070    3.5280    0.7820 c3        1 MOL      0.242092
     83 C26         1.7330    2.7120    0.8250 c         1 MOL      0.331764
     84 O13         1.6300    1.5080    0.4360 o         1 MOL     -0.490857
     85 C27         3.1260    4.3180   -0.5130 c3        1 MOL      0.144487
     86 C28         4.3920    5.0380   -0.6910 ca        1 MOL     -0.222560
     87 C29         5.5020    4.5340   -1.4370 ca        1 MOL      0.006325
     88 C30         4.5660    6.2830   -0.0250 ca        1 MOL      0.006325
     89 C31         6.6760    5.3430   -1.5400 ca        1 MOL     -0.371261
     90 C32         5.7900    7.0260   -0.1300 ca        1 MOL     -0.371261
     91 C33         6.8650    6.5280   -0.8400 ca        1 MOL      0.464208
     92 O14         8.1120    7.0830   -0.7830 oh        1 MOL     -0.507677
     93 H37         3.9440    1.6820    0.5190 hn        1 MOL      0.134434
     94 H38         3.0570    4.1910    1.6500 h1        1 MOL     -0.010355
     95 H39         2.3220    5.0490   -0.5190 hc        1 MOL     -0.018671
     96 H40         2.9620    3.6140   -1.3350 hc        1 MOL     -0.018671
     97 H41         5.4960    3.5760   -1.9380 ha        1 MOL      0.094748
     98 H42         3.7860    6.6380    0.6410 ha        1 MOL      0.094748
     99 H43         7.5610    4.9750   -2.0300 ha        1 MOL      0.157018
    100 H44         5.9620    7.9480    0.4000 ha        1 MOL      0.157018
    101 H45         8.1700    7.9880   -0.4680 ho        1 MOL      0.364848
    102 N10         0.6670    3.4290    1.1910 n         1 MOL     -0.332191
    103 C34        -0.7010    2.8490    1.1770 c3        1 MOL     -0.082163
    104 C35        -1.6750    3.8030    0.5190 c         1 MOL      0.437374
    105 O15        -1.7900    4.9880    0.8350 o         1 MOL     -0.517285
    106 C36        -1.2600    2.5940    2.5980 c3        1 MOL      0.098919
    107 C37        -0.2690    1.9960    3.6320 c3        1 MOL      0.190242
    108 C38        -2.4520    1.5850    2.5070 c3        1 MOL     -0.629109
    109 C39        -0.6770    2.3310    5.0780 c3        1 MOL     -0.176007
    110 H46         0.6760    4.3520    1.6080 hn        1 MOL      0.286002
    111 H47        -0.6450    1.9160    0.6060 h1        1 MOL      0.106790
    112 H48        -1.5770    3.6050    2.8460 hc        1 MOL      0.035909
    113 H49         0.7030    2.4750    3.4990 hc        1 MOL     -0.024505
    114 H50        -0.1670    0.9150    3.5460 hc        1 MOL     -0.024505
    115 H51        -2.8410    1.2380    3.4700 hc        1 MOL      0.164596
    116 H52        -3.2310    2.1350    1.9870 hc        1 MOL      0.164596
    117 H53        -2.0720    0.7780    1.8850 hc        1 MOL      0.164596
    118 H54        -1.7160    2.0850    5.2950 hc        1 MOL      0.033904
    119 H55        -0.0300    1.8240    5.7890 hc        1 MOL      0.033904
    120 H56        -0.5670    3.4120    5.1890 hc        1 MOL      0.033904
    121 N11        -2.4800    3.2630   -0.3940 n         1 MOL     -0.275042
    122 C40        -3.4990    3.9720   -1.0680 c3        1 MOL     -0.045048
    123 C41        -4.8600    3.7990   -0.4090 c         1 MOL      0.491142
    124 O16        -5.0240    2.9590    0.4650 o         1 MOL     -0.322943
    125 C42        -3.5640    3.4350   -2.5700 c3        1 MOL     -0.309319
    126 O17        -4.2420    2.1340   -2.6810 oh        1 MOL     -0.511782
    127 H57        -2.4160    2.2590   -0.4950 hn        1 MOL      0.386246
    128 H58        -3.2450    5.0360   -1.1410 h1        1 MOL      0.112180
    129 H59        -2.6090    3.3120   -3.0870 h1        1 MOL      0.158173
    130 H60        -4.1470    4.1150   -3.1920 h1        1 MOL      0.158173
    131 H61        -4.4020    1.9620   -3.6080 ho        1 MOL      0.398635
    132 N12        -5.9110    4.5380   -0.8000 n         1 MOL     -0.510292
    133 C43        -7.3080    4.4490   -0.2700 c3        1 MOL      0.115989
    134 C44        -7.8820    3.0270   -0.6130 c         1 MOL      0.418252
    135 O18        -8.5150    2.4060    0.2670 o         1 MOL     -0.478778
    136 C45        -8.2440    5.4690   -0.9850 c3        1 MOL     -0.235974
    137 H62        -5.7160    5.1400   -1.5890 hn        1 MOL      0.300623
    138 H63        -7.3390    4.5850    0.8180 h1        1 MOL      0.106712
    139 H64        -8.0280    5.2860   -2.0380 hc        1 MOL      0.081690
    140 H65        -9.3120    5.4300   -0.7790 hc        1 MOL      0.081690
    141 H66        -8.0510    6.5330   -0.8640 hc        1 MOL      0.081690
    142 N13        -7.5350    2.4400   -1.8050 n         1 MOL     -0.467222
    143 C46        -7.8240    1.0500   -2.1500 c3        1 MOL      0.260272
    144 C47        -7.2310   -0.0470   -1.2440 c         1 MOL      0.264519
    145 O19        -7.9000   -1.0080   -0.8170 o         1 MOL     -0.484156
    146 C48        -7.3120    0.7190   -3.5730 c3        1 MOL     -0.379673
    147 H67        -7.1440    3.0910   -2.4690 hn        1 MOL      0.282740
    148 H68        -8.8840    0.8020   -2.1520 h1        1 MOL      0.050895
    149 H69        -6.2280    0.6570   -3.5490 hc        1 MOL      0.094294
    150 H70        -7.6860   -0.2970   -3.6550 hc        1 MOL      0.094294
    151 H71        -7.7660    1.3920   -4.3010 hc        1 MOL      0.094294
    152 N14        -5.9150    0.0470   -0.9610 n         1 MOL     -0.070973
    153 C49        -5.3100   -0.8740   -0.0140 c3        1 MOL     -0.238648
    154 C50        -5.8800   -0.6250    1.3880 c         1 MOL      0.541746
    155 O20        -6.2360   -1.5900    2.0310 o         1 MOL     -0.545801
    156 C51        -3.8470   -0.6560   -0.0730 c3        1 MOL     -0.218400
    157 C52        -3.2140   -1.2060   -1.3810 c3        1 MOL      0.107203
    158 C53        -1.7110   -1.0660   -1.4650 c         1 MOL      0.550419
    159 O21        -1.0180   -0.9230   -0.4310 o         1 MOL     -0.729494
    160 O22        -1.1350   -1.3750   -2.6040 o         1 MOL     -0.729494
    161 H72        -5.3950    0.8540   -1.2760 hn        1 MOL      0.285758
    162 H73        -5.4580   -1.9210   -0.2800 h1        1 MOL      0.114456
    163 H74        -3.4180   -1.1330    0.8100 hc        1 MOL      0.104365
    164 H75        -3.5980    0.3970    0.0820 hc        1 MOL      0.104365
    165 H76        -3.7570   -0.8080   -2.2360 hc        1 MOL     -0.064698
    166 H77        -3.4480   -2.2790   -1.3540 hc        1 MOL     -0.064698
    167 N15        -6.1960    0.6060    1.8690 n         1 MOL     -0.061762
    168 C54        -6.9320    0.8080    3.1350 c3        1 MOL     -0.379643
    169 H78        -8.0010    0.6880    2.9560 h1        1 MOL      0.136729
    170 H79        -6.6020    0.0730    3.8680 h1        1 MOL      0.136729
    171 H80        -6.7380    1.8110    3.5120 h1        1 MOL      0.136729
    172 H81        -5.9270    1.4320    1.3490 hn        1 MOL      0.076043
    173 Ca1         1.5610   -0.5050   -1.3420 Ca        1 MOL      1.720858
    174 O23         1.9110   -0.7220   -4.0040 oh        1 MOL     -0.922097
    175 H82         2.0510   -1.6680   -4.1160 ho        1 MOL      0.427590
    176 H83         1.1120   -0.5420   -4.4960 ho        1 MOL      0.427590
    177 O24         0.1840    1.6420   -2.5180 oh        1 MOL     -0.922097
    178 H84         0.2990    2.5860   -2.6670 ho        1 MOL      0.427590
    179 H85        -0.1030    1.3040   -3.3680 ho        1 MOL      0.427590
@<TRIPOS>BOND
     1    1    2 1   
     2    1    4 1   
     3    1    5 1   
     4    1    6 1   
     5    2    3 2   
     6    2    7 1   
     7    7    8 1   
     8    7   15 1   
     9    8    9 1   
    10    8   11 1   
    11    8   16 1   
    12    9   10 2   
    13    9   19 1   
    14   11   12 1   
    15   11   17 1   
    16   11   18 1   
    17   12   13 1   
    18   12   14 1   
    19   19   20 1   
    20   19   28 1   
    21   20   21 1   
    22   20   23 1   
    23   20   29 1   
    24   21   22 2   
    25   21   41 1   
    26   23   24 1   
    27   23   30 1   
    28   23   31 1   
    29   24   25 1   
    30   24   32 1   
    31   24   33 1   
    32   25   26 1   
    33   25   34 1   
    34   25   35 1   
    35   26   27 1   
    36   26   36 1   
    37   26   37 1   
    38   27   38 1   
    39   27   39 1   
    40   27   40 1   
    41   41   42 1   
    42   41   49 1   
    43   42   43 1   
    44   42   45 1   
    45   42   50 1   
    46   43   44 2   
    47   43   53 1   
    48   45   46 1   
    49   45   51 1   
    50   45   52 1   
    51   46   47 1   
    52   46   48 1   
    53   53   54 1   
    54   53   57 1   
    55   54   55 1   
    56   54   58 1   
    57   54   59 1   
    58   55   56 2   
    59   55   60 1   
    60   60   61 1   
    61   60   68 1   
    62   61   62 1   
    63   61   64 1   
    64   61   69 1   
    65   62   63 2   
    66   62   74 1   
    67   64   65 1   
    68   64   70 1   
    69   64   71 1   
    70   65   66 1   
    71   65   67 2   
    72   66   72 1   
    73   66   73 1   
    74   74   75 1   
    75   74   78 1   
    76   75   76 1   
    77   75   79 1   
    78   75   80 1   
    79   76   77 2   
    80   76   81 1   
    81   81   82 1   
    82   81   93 1   
    83   82   83 1   
    84   82   85 1   
    85   82   94 1   
    86   83   84 2   
    87   83  102 1   
    88   85   86 1   
    89   85   95 1   
    90   85   96 1   
    91   86   87 ar  
    92   86   88 ar  
    93   87   89 ar  
    94   87   97 1   
    95   88   90 ar  
    96   88   98 1   
    97   89   91 ar  
    98   89   99 1   
    99   90   91 ar  
   100   90  100 1   
   101   91   92 1   
   102   92  101 1   
   103  102  103 1   
   104  102  110 1   
   105  103  104 1   
   106  103  106 1   
   107  103  111 1   
   108  104  105 2   
   109  104  121 1   
   110  106  107 1   
   111  106  108 1   
   112  106  112 1   
   113  107  109 1   
   114  107  113 1   
   115  107  114 1   
   116  108  115 1   
   117  108  116 1   
   118  108  117 1   
   119  109  118 1   
   120  109  119 1   
   121  109  120 1   
   122  121  122 1   
   123  121  127 1   
   124  122  123 1   
   125  122  125 1   
   126  122  128 1   
   127  123  124 2   
   128  123  132 1   
   129  125  126 1   
   130  125  129 1   
   131  125  130 1   
   132  126  131 1   
   133  132  133 1   
   134  132  137 1   
   135  133  134 1   
   136  133  136 1   
   137  133  138 1   
   138  134  135 2   
   139  134  142 1   
   140  136  139 1   
   141  136  140 1   
   142  136  141 1   
   143  142  143 1   
   144  142  147 1   
   145  143  144 1   
   146  143  146 1   
   147  143  148 1   
   148  144  145 2   
   149  144  152 1   
   150  146  149 1   
   151  146  150 1   
   152  146  151 1   
   153  152  153 1   
   154  152  161 1   
   155  153  154 1   
   156  153  156 1   
   157  153  162 1   
   158  154  155 2   
   159  154  167 1   
   160  156  157 1   
   161  156  163 1   
   162  156  164 1   
   163  157  158 1   
   164  157  165 1   
   165  157  166 1   
   166  158  159 1   
   167  158  160 1   
   168  167  168 1   
   169  167  172 1   
   170  168  169 1   
   171  168  170 1   
   172  168  171 1   
   173  174  175 1   
   174  174  176 1   
   175  177  178 1   
   176  177  179 1   
@<TRIPOS>SUBSTRUCTURE
     1 MOL         1 TEMP              0 ****  ****    0 ROOT
