@<TRIPOS>MOLECULE
MOL
  179   176     1     0     0
SMALL
resp


@<TRIPOS>ATOM
      1 C1          2.6570    2.2290    4.9490 c3        1 MOL     -0.391760
      2 C2          1.7460    2.4230    3.7270 c         1 MOL      0.704912
      3 O1          2.2400    2.6130    2.5750 o         1 MOL     -0.647552
      4 H1          3.6750    2.5260    4.6930 hc        1 MOL      0.109451
      5 H2          2.2970    2.8430    5.7740 hc        1 MOL      0.109451
      6 H3          2.6490    1.1800    5.2460 hc        1 MOL      0.109451
      7 N1          0.4430    2.4430    3.9530 n         1 MOL     -0.556721
      8 C3         -0.4770    2.3070    2.8040 c3        1 MOL      0.059533
      9 C4         -0.7370    3.6960    2.1220 c         1 MOL      0.489296
     10 O2         -1.7050    4.3850    2.4210 o         1 MOL     -0.495639
     11 C5         -1.7740    1.6140    3.2620 c3        1 MOL      0.023926
     12 C6         -2.7260    1.3380    2.1010 c         1 MOL      0.478707
     13 O3         -2.2260    1.4710    0.9730 o         1 MOL     -0.621984
     14 O4         -3.8660    0.9130    2.3350 o         1 MOL     -0.621984
     15 H4          0.0540    2.2390    4.8580 hn        1 MOL      0.321224
     16 H5         -0.1030    1.6000    2.0790 h1        1 MOL      0.068539
     17 H6         -2.2670    2.2180    4.0250 hc        1 MOL      0.021813
     18 H7         -1.4820    0.7470    3.8670 hc        1 MOL      0.021813
     19 N2          0.0850    4.0670    1.0770 n         1 MOL     -0.292864
     20 C7          0.1910    5.4590    0.5240 c3        1 MOL     -0.071093
     21 C8         -0.9650    5.8980   -0.3910 c         1 MOL      0.447723
     22 O5         -1.2620    7.0450   -0.3850 o         1 MOL     -0.532418
     23 C9          1.3310    5.6600   -0.3960 c3        1 MOL     -0.111113
     24 C10         2.6910    5.3610    0.2660 c3        1 MOL      0.250477
     25 C11         3.9190    5.5090   -0.7160 c3        1 MOL     -0.141542
     26 C12         5.2900    5.8840   -0.1530 c3        1 MOL      0.113347
     27 N3          6.3230    5.9280   -1.2280 n4        1 MOL     -0.391490
     28 H8          0.7890    3.4140    0.7790 hn        1 MOL      0.302012
     29 H9          0.3670    6.1890    1.3150 h1        1 MOL      0.101333
     30 H10         1.4220    6.7130   -0.6650 hc        1 MOL      0.025411
     31 H11         1.1550    5.0820   -1.3070 hc        1 MOL      0.025411
     32 H12         2.6700    4.3260    0.6110 hc        1 MOL     -0.012984
     33 H13         2.7970    6.0130    1.1300 hc        1 MOL     -0.012984
     34 H14         3.6280    6.2570   -1.4610 hc        1 MOL      0.021215
     35 H15         4.0360    4.5630   -1.2550 hc        1 MOL      0.021215
     36 H16         5.4370    5.1640    0.6550 hx        1 MOL      0.070073
     37 H17         5.2720    6.8190    0.4010 hx        1 MOL      0.070073
     38 H18         6.9530    6.7090   -1.1370 hn        1 MOL      0.336145
     39 H19         6.7760    5.0370   -1.3250 hn        1 MOL      0.336145
     40 H20         5.8950    6.0900   -2.1250 hn        1 MOL      0.336145
     41 N4         -1.6630    5.0280   -1.1310 n         1 MOL     -0.181721
     42 C13        -2.8980    5.2630   -1.9400 c3        1 MOL     -0.110528
     43 C14        -4.1670    5.1000   -0.9720 c         1 MOL      0.473915
     44 O6         -5.2870    5.5700   -1.2280 o         1 MOL     -0.547065
     45 C15        -3.0300    4.4500   -3.2720 c3        1 MOL      0.064993
     46 C16        -2.6840    2.9680   -3.0970 c         1 MOL      0.574987
     47 O7         -2.6660    2.4890   -1.9450 o         1 MOL     -0.679340
     48 O8         -2.4980    2.2740   -4.1380 o         1 MOL     -0.679340
     49 H21        -1.4580    4.0440   -1.0200 hn        1 MOL      0.110005
     50 H22        -2.8710    6.3220   -2.2000 h1        1 MOL      0.109815
     51 H23        -2.2890    4.8990   -3.9370 hc        1 MOL      0.014368
     52 H24        -3.9550    4.6580   -3.8130 hc        1 MOL      0.014368
     53 N5         -3.9670    4.4940    0.2000 n         1 MOL     -0.049753
     54 C17        -5.1060    4.0730    1.0460 c3        1 MOL     -0.257884
     55 C18        -5.9380    2.9230    0.4640 c         1 MOL      0.626675
     56 O9         -7.1010    2.7070    0.8200 o         1 MOL     -0.591804
     57 H25        -3.0880    4.0560    0.4480 hn        1 MOL      0.054314
     58 H26        -5.7390    4.9370    1.2290 h1        1 MOL      0.128333
     59 H27        -4.6890    3.7240    1.9930 h1        1 MOL      0.128333
     60 N6         -5.3180    2.0200   -0.3490 n         1 MOL     -0.288307
     61 C19        -6.0650    0.9100   -1.0520 c3        1 MOL      0.033515
     62 C20        -6.3150   -0.3850   -0.2940 c         1 MOL      0.336656
     63 O10        -6.9880   -1.2620   -0.8230 o         1 MOL     -0.502639
     64 C21        -5.4650    0.6230   -2.4350 c3        1 MOL     -0.620085
     65 C22        -4.4790   -0.5150   -2.4550 c         1 MOL      0.854374
     66 N7         -4.4630   -1.2660   -3.5190 n         1 MOL     -0.850102
     67 O11        -3.5790   -0.6000   -1.6610 o         1 MOL     -0.616705
     68 H28        -4.3300    2.1680   -0.5310 hn        1 MOL      0.119725
     69 H29        -7.0610    1.3100   -1.2660 h1        1 MOL      0.140946
     70 H30        -5.1230    1.5350   -2.9170 hc        1 MOL      0.200442
     71 H31        -6.3000    0.2230   -3.0000 hc        1 MOL      0.200442
     72 H32        -5.2030   -1.0350   -4.1740 hn        1 MOL      0.390438
     73 H33        -3.6210   -1.7470   -3.7960 hn        1 MOL      0.390438
     74 N8         -5.7830   -0.3670    0.9290 n         1 MOL     -0.046042
     75 C23        -6.0630   -1.4340    1.9510 c3        1 MOL     -0.477824
     76 C24        -5.0350   -2.5360    1.8170 c         1 MOL      0.588495
     77 O12        -5.2320   -3.5440    2.5100 o         1 MOL     -0.555405
     78 H34        -5.1740    0.3520    1.3030 hn        1 MOL      0.262462
     79 H35        -6.9910   -1.9490    1.7220 h1        1 MOL      0.199704
     80 H36        -5.9280   -1.0390    2.9560 h1        1 MOL      0.199704
     81 N9         -4.0400   -2.4780    0.9730 n         1 MOL     -0.225998
     82 C25        -3.0560   -3.5340    0.7940 c3        1 MOL      0.162022
     83 C26        -1.5910   -3.0430    0.7360 c         1 MOL      0.524010
     84 O13        -1.3250   -1.9610    0.1620 o         1 MOL     -0.665853
     85 C27        -3.3670   -4.1770   -0.4460 c3        1 MOL      0.229846
     86 C28        -4.6340   -4.9490   -0.4660 ca        1 MOL     -0.071796
     87 C29        -4.8050   -6.1080    0.2270 ca        1 MOL     -0.103209
     88 C30        -5.6880   -4.4860   -1.2630 ca        1 MOL     -0.103209
     89 C31        -6.0800   -6.7650    0.2390 ca        1 MOL     -0.321330
     90 C32        -6.9510   -5.1760   -1.3750 ca        1 MOL     -0.321330
     91 C33        -7.1530   -6.3150   -0.5740 ca        1 MOL      0.420797
     92 O14        -8.3470   -7.0100   -0.6290 oh        1 MOL     -0.537893
     93 H37        -3.9510   -1.7540    0.2750 hn        1 MOL      0.123393
     94 H38        -3.0450   -4.2240    1.6290 h1        1 MOL     -0.004662
     95 H39        -2.6180   -4.9000   -0.7680 hc        1 MOL     -0.060518
     96 H40        -3.4510   -3.4470   -1.2510 hc        1 MOL     -0.060518
     97 H41        -3.9630   -6.5500    0.7310 ha        1 MOL      0.114050
     98 H42        -5.4600   -3.6260   -1.8750 ha        1 MOL      0.114050
     99 H43        -6.1810   -7.6770    0.8030 ha        1 MOL      0.165194
    100 H44        -7.7630   -4.7690   -1.9480 ha        1 MOL      0.165194
    101 H45        -8.9790   -6.6600   -1.2600 ho        1 MOL      0.381994
    102 N10        -0.6150   -3.5960    1.4380 n         1 MOL     -0.568925
    103 C34         0.7720   -3.1090    1.6360 c3        1 MOL     -0.001478
    104 C35         1.6860   -3.9170    0.6450 c         1 MOL      0.630889
    105 O15         1.7380   -5.1230    0.7180 o         1 MOL     -0.569359
    106 C36         1.1630   -3.2530    3.0910 c3        1 MOL      0.030272
    107 C37         0.4260   -2.2150    3.9260 c3        1 MOL      0.272816
    108 C38         2.7490   -3.0340    3.3130 c3        1 MOL     -0.426923
    109 C39         0.5610   -2.3810    5.4450 c3        1 MOL     -0.319765
    110 H46        -0.7330   -4.4720    1.9200 hn        1 MOL      0.322936
    111 H47         0.8290   -2.0710    1.3190 h1        1 MOL      0.117584
    112 H48         0.9490   -4.2870    3.3690 hc        1 MOL      0.048380
    113 H49        -0.6500   -2.2450    3.7510 hc        1 MOL     -0.037194
    114 H50         0.6270   -1.2140    3.5410 hc        1 MOL     -0.037194
    115 H51         3.0170   -3.4300    4.2890 hc        1 MOL      0.113225
    116 H52         3.3040   -3.5840    2.5460 hc        1 MOL      0.113225
    117 H53         2.9690   -1.9810    3.4920 hc        1 MOL      0.113225
    118 H54         0.4720   -3.4130    5.7690 hc        1 MOL      0.070882
    119 H55         1.5400   -2.0450    5.7770 hc        1 MOL      0.070882
    120 H56        -0.1810   -1.7540    5.9440 hc        1 MOL      0.070882
    121 N11         2.3780   -3.2530   -0.2900 n         1 MOL     -0.220029
    122 C40         3.2430   -3.7130   -1.3610 c3        1 MOL     -0.258309
    123 C41         4.7770   -3.6880   -0.9140 c         1 MOL      0.674616
    124 O16         5.0750   -2.9970    0.0460 o         1 MOL     -0.535450
    125 C42         2.9290   -2.8660   -2.5860 c3        1 MOL      0.007586
    126 O17         3.3080   -1.4680   -2.3000 oh        1 MOL     -0.541861
    127 H57         2.3490   -2.2400   -0.2400 hn        1 MOL      0.217639
    128 H58         3.1030   -4.7810   -1.5370 h1        1 MOL      0.110039
    129 H59         1.8890   -3.0030   -2.8680 h1        1 MOL      0.092535
    130 H60         3.4660   -3.1480   -3.4940 h1        1 MOL      0.092535
    131 H61         2.6960   -1.0350   -1.6940 ho        1 MOL      0.363181
    132 N12         5.6380   -4.5640   -1.4810 n         1 MOL     -0.526046
    133 C43         7.1250   -4.5060   -1.3110 c3        1 MOL      0.194770
    134 C44         7.7430   -3.1010   -1.3520 c         1 MOL      0.398045
    135 O18         8.4000   -2.6910   -0.3500 o         1 MOL     -0.490129
    136 C45         7.6850   -5.4810   -2.3290 c3        1 MOL     -0.186296
    137 H62         5.1430   -5.3030   -1.9610 hn        1 MOL      0.299997
    138 H63         7.4810   -4.9080   -0.3610 h1        1 MOL      0.062879
    139 H64         8.7360   -5.3030   -2.5840 hc        1 MOL      0.057935
    140 H65         7.6160   -6.5230   -2.0070 hc        1 MOL      0.057935
    141 H66         7.1670   -5.3660   -3.2800 hc        1 MOL      0.057935
    142 N13         7.4170   -2.2670   -2.3440 n         1 MOL     -0.350132
    143 C46         7.6530   -0.8260   -2.4140 c3        1 MOL      0.049569
    144 C47         7.2040    0.0050   -1.2050 c         1 MOL      0.419761
    145 O19         8.0320    0.7920   -0.6900 o         1 MOL     -0.524454
    146 C48         7.1230   -0.2910   -3.7400 c3        1 MOL     -0.227167
    147 H67         6.8170   -2.7190   -3.0220 hn        1 MOL      0.248640
    148 H68         8.7270   -0.6580   -2.3560 h1        1 MOL      0.086250
    149 H69         6.0750   -0.0100   -3.7630 hc        1 MOL      0.070054
    150 H70         7.6500    0.6300   -3.9690 hc        1 MOL      0.070054
    151 H71         7.3430   -0.9190   -4.6030 hc        1 MOL      0.070054
    152 N14         5.9530   -0.0250   -0.7790 n         1 MOL     -0.055350
    153 C49         5.4880    0.7400    0.4000 c3        1 MOL     -0.657293
    154 C50         6.1300    0.3380    1.7490 c         1 MOL      0.648212
    155 O20         6.1670    1.2130    2.6650 o         1 MOL     -0.578702
    156 C51         3.9760    0.6290    0.5840 c3        1 MOL      0.441567
    157 C52         3.2080    1.4100   -0.4200 c3        1 MOL      0.055324
    158 C53         1.7410    1.0170   -0.5100 c         1 MOL      0.613078
    159 O21         0.8360    1.7720   -0.1650 o         1 MOL     -0.726981
    160 O22         1.4460   -0.1780   -0.8340 o         1 MOL     -0.726981
    161 H72         5.2640   -0.6450   -1.1850 hn        1 MOL      0.172458
    162 H73         5.6880    1.8080    0.2600 h1        1 MOL      0.198093
    163 H74         3.7420    0.9870    1.5890 hc        1 MOL     -0.070776
    164 H75         3.7360   -0.4380    0.6730 hc        1 MOL     -0.070776
    165 H76         3.5810    1.1990   -1.4220 hc        1 MOL     -0.045487
    166 H77         3.2920    2.4880   -0.3070 hc        1 MOL     -0.045487
    167 N15         6.4120   -0.9550    1.8870 n         1 MOL     -0.186266
    168 C54         7.1040   -1.3940    3.0700 c3        1 MOL     -0.326111
    169 H78         8.1330   -1.0340    3.0430 h1        1 MOL      0.125502
    170 H79         6.6040   -0.9960    3.9530 h1        1 MOL      0.125502
    171 H80         7.1020   -2.4830    3.1090 h1        1 MOL      0.125502
    172 H81         6.2970   -1.5410    1.0700 hn        1 MOL      0.261805
    173 Ca1        -1.1990    0.4530   -1.0190 Ca        1 MOL      1.743752
    174 O23        -0.1550    1.3180   -3.5370 oh        1 MOL     -0.782466
    175 H82         0.5530    1.7520   -4.0160 ho        1 MOL      0.382001
    176 H83        -0.9570    1.7470   -3.8560 ho        1 MOL      0.382001
    177 O24        -0.7920   -1.5730   -2.8010 oh        1 MOL     -0.782466
    178 H84        -0.8630   -2.3660   -2.2800 ho        1 MOL      0.382001
    179 H85        -1.0890   -1.8330   -3.6710 ho        1 MOL      0.382001
@<TRIPOS>BOND
     1    1    2 1   
     2    1    4 1   
     3    1    5 1   
     4    1    6 1   
     5    2    3 2   
     6    2    7 1   
     7    7    8 1   
     8    7   15 1   
     9    8    9 1   
    10    8   11 1   
    11    8   16 1   
    12    9   10 2   
    13    9   19 1   
    14   11   12 1   
    15   11   17 1   
    16   11   18 1   
    17   12   13 1   
    18   12   14 1   
    19   19   20 1   
    20   19   28 1   
    21   20   21 1   
    22   20   23 1   
    23   20   29 1   
    24   21   22 2   
    25   21   41 1   
    26   23   24 1   
    27   23   30 1   
    28   23   31 1   
    29   24   25 1   
    30   24   32 1   
    31   24   33 1   
    32   25   26 1   
    33   25   34 1   
    34   25   35 1   
    35   26   27 1   
    36   26   36 1   
    37   26   37 1   
    38   27   38 1   
    39   27   39 1   
    40   27   40 1   
    41   41   42 1   
    42   41   49 1   
    43   42   43 1   
    44   42   45 1   
    45   42   50 1   
    46   43   44 2   
    47   43   53 1   
    48   45   46 1   
    49   45   51 1   
    50   45   52 1   
    51   46   47 1   
    52   46   48 1   
    53   53   54 1   
    54   53   57 1   
    55   54   55 1   
    56   54   58 1   
    57   54   59 1   
    58   55   56 2   
    59   55   60 1   
    60   60   61 1   
    61   60   68 1   
    62   61   62 1   
    63   61   64 1   
    64   61   69 1   
    65   62   63 2   
    66   62   74 1   
    67   64   65 1   
    68   64   70 1   
    69   64   71 1   
    70   65   66 1   
    71   65   67 2   
    72   66   72 1   
    73   66   73 1   
    74   74   75 1   
    75   74   78 1   
    76   75   76 1   
    77   75   79 1   
    78   75   80 1   
    79   76   77 2   
    80   76   81 1   
    81   81   82 1   
    82   81   93 1   
    83   82   83 1   
    84   82   85 1   
    85   82   94 1   
    86   83   84 2   
    87   83  102 1   
    88   85   86 1   
    89   85   95 1   
    90   85   96 1   
    91   86   87 ar  
    92   86   88 ar  
    93   87   89 ar  
    94   87   97 1   
    95   88   90 ar  
    96   88   98 1   
    97   89   91 ar  
    98   89   99 1   
    99   90   91 ar  
   100   90  100 1   
   101   91   92 1   
   102   92  101 1   
   103  102  103 1   
   104  102  110 1   
   105  103  104 1   
   106  103  106 1   
   107  103  111 1   
   108  104  105 2   
   109  104  121 1   
   110  106  107 1   
   111  106  108 1   
   112  106  112 1   
   113  107  109 1   
   114  107  113 1   
   115  107  114 1   
   116  108  115 1   
   117  108  116 1   
   118  108  117 1   
   119  109  118 1   
   120  109  119 1   
   121  109  120 1   
   122  121  122 1   
   123  121  127 1   
   124  122  123 1   
   125  122  125 1   
   126  122  128 1   
   127  123  124 2   
   128  123  132 1   
   129  125  126 1   
   130  125  129 1   
   131  125  130 1   
   132  126  131 1   
   133  132  133 1   
   134  132  137 1   
   135  133  134 1   
   136  133  136 1   
   137  133  138 1   
   138  134  135 2   
   139  134  142 1   
   140  136  139 1   
   141  136  140 1   
   142  136  141 1   
   143  142  143 1   
   144  142  147 1   
   145  143  144 1   
   146  143  146 1   
   147  143  148 1   
   148  144  145 2   
   149  144  152 1   
   150  146  149 1   
   151  146  150 1   
   152  146  151 1   
   153  152  153 1   
   154  152  161 1   
   155  153  154 1   
   156  153  156 1   
   157  153  162 1   
   158  154  155 2   
   159  154  167 1   
   160  156  157 1   
   161  156  163 1   
   162  156  164 1   
   163  157  158 1   
   164  157  165 1   
   165  157  166 1   
   166  158  159 1   
   167  158  160 1   
   168  167  168 1   
   169  167  172 1   
   170  168  169 1   
   171  168  170 1   
   172  168  171 1   
   173  174  175 1   
   174  174  176 1   
   175  177  178 1   
   176  177  179 1   
@<TRIPOS>SUBSTRUCTURE
     1 MOL         1 TEMP              0 ****  ****    0 ROOT
