@<TRIPOS>MOLECULE
MOL
  182   178     1     0     0
SMALL
resp


@<TRIPOS>ATOM
      1 C1         -1.4260   -4.7030    5.2820 c3        1 MOL     -0.350168
      2 C2         -1.1420   -3.8890    4.0470 c         1 MOL      0.764278
      3 O1         -2.0190   -3.6470    3.2620 o         1 MOL     -0.584851
      4 H1         -2.4780   -4.9840    5.2970 hc        1 MOL      0.083120
      5 H2         -0.8090   -5.6020    5.2760 hc        1 MOL      0.083120
      6 H3         -1.1960   -4.1120    6.1690 hc        1 MOL      0.083120
      7 N1          0.0640   -3.4050    3.9020 n         1 MOL     -0.565664
      8 C3          0.5750   -2.8850    2.6030 c3        1 MOL      0.098359
      9 C4          0.5870   -4.0540    1.5470 c         1 MOL      0.478842
     10 O2          1.2320   -5.0580    1.7890 o         1 MOL     -0.538159
     11 C5          2.0380   -2.4550    2.8660 c3        1 MOL     -0.177933
     12 C6          2.6830   -1.7960    1.6370 c         1 MOL      0.625599
     13 O3          3.8280   -1.2200    1.8040 o         1 MOL     -0.658067
     14 O4          2.2320   -1.9930    0.4940 o         1 MOL     -0.658067
     15 H4          0.7880   -3.3040    4.6040 hn        1 MOL      0.316333
     16 H5         -0.0880   -2.1160    2.1980 h1        1 MOL     -0.027577
     17 H6          2.5620   -3.3320    3.2310 hc        1 MOL      0.075451
     18 H7          2.0100   -1.7920    3.7280 hc        1 MOL      0.075451
     19 N2         -0.1210   -3.8520    0.3570 n         1 MOL     -0.275837
     20 C7         -0.3000   -4.8680   -0.7320 c3        1 MOL     -0.095829
     21 C8          0.7990   -4.9090   -1.8350 c         1 MOL      0.576498
     22 O5          0.4830   -5.3910   -2.9160 o         1 MOL     -0.558244
     23 C9         -1.6970   -4.6750   -1.4440 c3        1 MOL     -0.178577
     24 C10        -2.9570   -4.5950   -0.4880 c3        1 MOL     -0.109023
     25 C11        -3.4160   -6.0330    0.0030 c3        1 MOL     -0.013352
     26 C12        -4.5520   -5.8780    1.0050 c3        1 MOL      0.102470
     27 N3         -4.7940   -7.2030    1.5760 n4        1 MOL     -0.449047
     28 H8         -0.4950   -2.9430    0.1440 hn        1 MOL      0.302022
     29 H9         -0.3080   -5.8860   -0.3290 h1        1 MOL      0.093264
     30 H10        -1.8790   -5.4320   -2.1960 hc        1 MOL      0.081568
     31 H11        -1.6980   -3.6960   -1.9250 hc        1 MOL      0.081568
     32 H12        -3.8530   -4.2670   -1.0210 hc        1 MOL      0.083072
     33 H13        -2.8520   -3.8260    0.2740 hc        1 MOL      0.083072
     34 H14        -2.6640   -6.5300    0.6110 hc        1 MOL      0.034717
     35 H15        -3.6290   -6.7060   -0.8210 hc        1 MOL      0.034717
     36 H16        -5.4160   -5.4670    0.4660 hx        1 MOL      0.067694
     37 H17        -4.1120   -5.1990    1.7320 hx        1 MOL      0.067694
     38 H18        -5.5360   -7.2690    2.2640 hn        1 MOL      0.343912
     39 H19        -5.0470   -7.9490    0.9430 hn        1 MOL      0.343912
     40 H20        -4.0410   -7.3860    2.2130 hn        1 MOL      0.343912
     41 N4          1.9860   -4.3550   -1.6000 n         1 MOL     -0.327292
     42 C13         3.2390   -4.7100   -2.3180 c3        1 MOL     -0.099102
     43 C14         4.4380   -4.5660   -1.3680 c         1 MOL      0.448544
     44 O6          5.5110   -5.1010   -1.7130 o         1 MOL     -0.526368
     45 C15         3.4660   -3.7490   -3.5490 c3        1 MOL     -0.195288
     46 C16         3.4360   -2.2750   -3.3850 c         1 MOL      0.777164
     47 O7          3.1990   -1.8180   -2.2760 o         1 MOL     -0.731277
     48 O8          3.5920   -1.6000   -4.4050 o         1 MOL     -0.731277
     49 H21         2.0030   -3.6380   -0.8980 hn        1 MOL      0.115862
     50 H22         3.1320   -5.7710   -2.5590 h1        1 MOL      0.142256
     51 H23         2.8740   -4.0510   -4.4080 hc        1 MOL      0.073627
     52 H24         4.4890   -3.9770   -3.8310 hc        1 MOL      0.073627
     53 N5          4.3340   -3.8510   -0.2350 n         1 MOL     -0.300704
     54 C17         5.5020   -3.6410    0.5630 c3        1 MOL      0.007332
     55 C18         6.3910   -2.5220    0.2470 c         1 MOL      0.475436
     56 O9          7.5400   -2.6020    0.5600 o         1 MOL     -0.580010
     57 H25         3.4250   -3.4510   -0.0280 hn        1 MOL      0.287542
     58 H26         6.0880   -4.5540    0.6030 h1        1 MOL      0.063590
     59 H27         5.2110   -3.5710    1.6140 h1        1 MOL      0.063590
     60 N6          5.9460   -1.5130   -0.4170 n         1 MOL     -0.129617
     61 C19         6.6980   -0.3320   -0.8210 c3        1 MOL     -0.081671
     62 C20         6.9570    0.7510    0.3110 c         1 MOL      0.402082
     63 O10         7.8040    1.5760    0.0870 o         1 MOL     -0.507985
     64 C21         6.0010    0.2670   -2.0530 c3        1 MOL     -0.420283
     65 C22         4.5980    0.8360   -1.8140 c         1 MOL      0.682859
     66 N7          4.1040    1.5450   -2.8060 n         1 MOL     -0.767040
     67 O11         3.8600    0.7300   -0.8350 o         1 MOL     -0.418393
     68 H28         4.9510   -1.4740   -0.5770 hn        1 MOL      0.193977
     69 H29         7.6820   -0.6510   -1.1810 h1        1 MOL      0.138389
     70 H30         5.8600   -0.5290   -2.7860 hc        1 MOL      0.163229
     71 H31         6.5340    1.1730   -2.3690 hc        1 MOL      0.163229
     72 H32         4.5660    1.6680   -3.6890 hn        1 MOL      0.348827
     73 H33         3.1950    1.9520   -2.6260 hn        1 MOL      0.348827
     74 N8          6.1630    0.8020    1.3690 n         1 MOL     -0.146659
     75 C23         6.0370    1.7930    2.4100 c3        1 MOL     -0.248646
     76 C24         4.9320    2.8280    2.2780 c         1 MOL      0.600171
     77 O12         4.8410    3.6580    3.1860 o         1 MOL     -0.592214
     78 H34         5.4630    0.0760    1.4030 hn        1 MOL      0.183958
     79 H35         6.9620    2.3540    2.5180 h1        1 MOL      0.124829
     80 H36         5.9180    1.3060    3.3800 h1        1 MOL      0.124829
     81 N9          3.9660    2.6880    1.3850 n         1 MOL     -0.101151
     82 C25         2.7240    3.3520    1.2280 c3        1 MOL     -0.171128
     83 C26         1.4050    2.5420    1.1460 c         1 MOL      0.784294
     84 O13         1.4460    1.4360    0.6370 o         1 MOL     -0.683763
     85 C27         2.9320    4.2160    0.0120 c3        1 MOL      0.186889
     86 C28         4.0020    5.2610    0.0010 ca        1 MOL     -0.110478
     87 C29         5.0620    5.1690   -0.9180 ca        1 MOL     -0.118717
     88 C30         3.9750    6.2730    0.9910 ca        1 MOL     -0.118717
     89 C31         6.1330    6.1130   -0.7880 ca        1 MOL     -0.248893
     90 C32         5.0710    7.1480    1.1750 ca        1 MOL     -0.248893
     91 C33         6.1080    7.0010    0.3060 ca        1 MOL      0.359532
     92 O14         7.2360    7.8110    0.4940 oh        1 MOL     -0.541371
     93 H37         3.9580    1.8790    0.7900 hn        1 MOL      0.048212
     94 H38         2.6620    4.0420    2.0740 h1        1 MOL      0.052440
     95 H39         2.0110    4.7740   -0.1550 hc        1 MOL     -0.036007
     96 H40         3.0560    3.6230   -0.8950 hc        1 MOL     -0.036007
     97 H41         5.0720    4.4230   -1.7010 ha        1 MOL      0.125434
     98 H42         3.1770    6.3690    1.7020 ha        1 MOL      0.125434
     99 H43         7.0180    6.0700   -1.4100 ha        1 MOL      0.155728
    100 H44         5.1340    7.9260    1.9090 ha        1 MOL      0.155728
    101 H45         7.1800    8.4690    1.1930 ho        1 MOL      0.375037
    102 N10         0.3450    3.0670    1.6360 n         1 MOL     -0.607987
    103 C34        -0.9720    2.4740    1.6670 c3        1 MOL      0.012504
    104 C35        -2.0150    3.4270    1.1530 c         1 MOL      0.647415
    105 O15        -2.2180    4.5570    1.5700 o         1 MOL     -0.559660
    106 C36        -1.3590    2.0510    3.1210 c3        1 MOL      0.031079
    107 C37        -0.7190    0.6280    3.3040 c3        1 MOL      0.020098
    108 C38        -2.8810    2.0540    3.3970 c3        1 MOL     -0.086520
    109 C39        -1.1620   -0.2670    4.4850 c3        1 MOL     -0.203774
    110 H46         0.5050    3.9520    2.0860 hn        1 MOL      0.337069
    111 H47        -0.9950    1.6410    0.9770 h1        1 MOL     -0.041390
    112 H48        -0.8880    2.7770    3.7890 hc        1 MOL      0.039772
    113 H49         0.3740    0.6930    3.2970 hc        1 MOL      0.048443
    114 H50        -0.9830    0.0750    2.3950 hc        1 MOL      0.048443
    115 H51        -3.1400    1.4570    4.2680 hc        1 MOL      0.016330
    116 H52        -3.2720    3.0690    3.3670 hc        1 MOL      0.016330
    117 H53        -3.3000    1.5130    2.5470 hc        1 MOL      0.016330
    118 H54        -2.0600   -0.8580    4.2960 hc        1 MOL      0.051970
    119 H55        -0.3810   -0.9300    4.8630 hc        1 MOL      0.051970
    120 H56        -1.3150    0.4500    5.2860 hc        1 MOL      0.051970
    121 N11        -2.6410    2.9900    0.0790 n         1 MOL     -0.467916
    122 C40        -3.6060    3.7730   -0.7310 c3        1 MOL      0.108852
    123 C41        -5.0140    3.6630   -0.2570 c         1 MOL      0.360874
    124 O16        -5.3360    2.7620    0.5200 o         1 MOL     -0.359265
    125 C42        -3.3910    3.2600   -2.1570 c3        1 MOL     -0.134179
    126 O17        -4.2860    2.2660   -2.6140 oh        1 MOL     -0.430730
    127 H57        -2.5730    2.0190   -0.1780 hn        1 MOL      0.384746
    128 H58        -3.3150    4.8240   -0.7090 h1        1 MOL      0.074054
    129 H59        -2.3850    2.8400   -2.2360 h1        1 MOL      0.089057
    130 H60        -3.5200    4.0810   -2.8690 h1        1 MOL      0.089057
    131 H61        -3.9210    1.8560   -3.3980 ho        1 MOL      0.391503
    132 N12        -5.8340    4.5590   -0.7530 n         1 MOL     -0.390107
    133 C43        -7.2910    4.4550   -0.5500 c3        1 MOL      0.183393
    134 C44        -8.0190    3.2210   -1.1820 c         1 MOL      0.362636
    135 O18        -9.2760    3.1610   -1.0210 o         1 MOL     -0.525297
    136 C45        -7.8500    5.7520   -1.0760 c3        1 MOL     -0.316224
    137 H62        -5.4140    5.2970   -1.3020 hn        1 MOL      0.290506
    138 H63        -7.5210    4.3140    0.5010 h1        1 MOL      0.077953
    139 H64        -8.9100    5.8070   -0.8000 hc        1 MOL      0.097871
    140 H65        -7.3300    6.5990   -0.6240 hc        1 MOL      0.097871
    141 H66        -7.8570    5.8100   -2.1620 hc        1 MOL      0.097871
    142 N13        -7.3440    2.3370   -1.8820 n         1 MOL     -0.215208
    143 C46        -7.8410    1.0610   -2.4400 c3        1 MOL      0.183668
    144 C47        -7.3210   -0.1280   -1.5170 c         1 MOL      0.290489
    145 O19        -7.9630   -1.1300   -1.4720 o         1 MOL     -0.471304
    146 C48        -7.4030    0.9310   -3.8940 c3        1 MOL     -0.120165
    147 H67        -6.4030    2.6040   -2.1360 hn        1 MOL      0.132555
    148 H68        -8.9350    1.1290   -2.4620 h1        1 MOL      0.067459
    149 H69        -7.3990    1.8740   -4.4370 hc        1 MOL      0.032036
    150 H70        -6.3650    0.5850   -3.9080 hc        1 MOL      0.032036
    151 H71        -8.0410    0.1480   -4.2950 hc        1 MOL      0.032036
    152 N14        -6.1660    0.0930   -0.9060 n         1 MOL      0.025143
    153 C49        -5.5160   -0.7600    0.0550 c3        1 MOL     -0.196267
    154 C50        -6.2560   -0.7370    1.4600 c         1 MOL      0.485036
    155 O20        -6.4940   -1.8350    1.9250 o         1 MOL     -0.566347
    156 C51        -4.0190   -0.5210    0.1770 c3        1 MOL     -0.166814
    157 C52        -3.2140   -0.6660   -1.1720 c3        1 MOL      0.185757
    158 C53        -1.7120   -0.4950   -1.1060 c         1 MOL      0.746611
    159 O21        -1.1130   -1.2450   -0.3520 o         1 MOL     -0.801637
    160 O22        -1.0950    0.3630   -1.8160 o         1 MOL     -0.801637
    161 H72        -5.6640    0.9550   -1.0590 hn        1 MOL     -0.013142
    162 H73        -5.6840   -1.7810   -0.3160 h1        1 MOL      0.109508
    163 H74        -3.5000   -1.1810    0.8820 hc        1 MOL      0.098832
    164 H75        -3.8450    0.4850    0.5660 hc        1 MOL      0.098832
    165 H76        -3.6130   -0.0550   -1.9840 hc        1 MOL     -0.077602
    166 H77        -3.3590   -1.6770   -1.5470 hc        1 MOL     -0.077602
    167 N15        -6.6620    0.4390    1.9670 n         1 MOL     -0.106870
    168 C54        -7.5480    0.5130    3.1410 c3        1 MOL     -0.219654
    169 H78        -7.8610   -0.4920    3.4240 h1        1 MOL      0.102896
    170 H79        -7.0140    0.9740    3.9720 h1        1 MOL      0.102896
    171 H80        -8.4260    1.1100    2.8970 h1        1 MOL      0.102896
    172 H81        -6.3330    1.2130    1.4190 hn        1 MOL      0.089952
    173 Ca1         1.3580   -0.2900   -1.3060 Ca        1 MOL      1.764774
    174 O23         1.5010    0.1340   -3.9760 oh        1 MOL     -0.799971
    175 H82         2.1430   -0.5360   -4.1760 ho        1 MOL      0.390152
    176 H83         0.9700    0.2070   -4.7730 ho        1 MOL      0.390152
    177 O24         1.2740    2.3430   -2.2560 oh        1 MOL     -0.799971
    178 H84         1.0610    2.2410   -3.1850 ho        1 MOL      0.390152
    179 H85         0.6910    3.0420   -1.9450 ho        1 MOL      0.390152
    180 O25         0.1180   -2.2360   -2.9400 oh        1 MOL     -0.799971
    181 H86         0.5440   -2.9850   -3.3420 ho        1 MOL      0.390152
    182 H87        -0.5470   -1.9660   -3.5660 ho        1 MOL      0.390152
@<TRIPOS>BOND
     1    1    2 1   
     2    1    4 1   
     3    1    5 1   
     4    1    6 1   
     5    2    3 2   
     6    2    7 1   
     7    7    8 1   
     8    7   15 1   
     9    8    9 1   
    10    8   11 1   
    11    8   16 1   
    12    9   10 2   
    13    9   19 1   
    14   11   12 1   
    15   11   17 1   
    16   11   18 1   
    17   12   13 1   
    18   12   14 1   
    19   19   20 1   
    20   19   28 1   
    21   20   21 1   
    22   20   23 1   
    23   20   29 1   
    24   21   22 2   
    25   21   41 1   
    26   23   24 1   
    27   23   30 1   
    28   23   31 1   
    29   24   25 1   
    30   24   32 1   
    31   24   33 1   
    32   25   26 1   
    33   25   34 1   
    34   25   35 1   
    35   26   27 1   
    36   26   36 1   
    37   26   37 1   
    38   27   38 1   
    39   27   39 1   
    40   27   40 1   
    41   41   42 1   
    42   41   49 1   
    43   42   43 1   
    44   42   45 1   
    45   42   50 1   
    46   43   44 2   
    47   43   53 1   
    48   45   46 1   
    49   45   51 1   
    50   45   52 1   
    51   46   47 1   
    52   46   48 1   
    53   53   54 1   
    54   53   57 1   
    55   54   55 1   
    56   54   58 1   
    57   54   59 1   
    58   55   56 2   
    59   55   60 1   
    60   60   61 1   
    61   60   68 1   
    62   61   62 1   
    63   61   64 1   
    64   61   69 1   
    65   62   63 2   
    66   62   74 1   
    67   64   65 1   
    68   64   70 1   
    69   64   71 1   
    70   65   66 1   
    71   65   67 2   
    72   66   72 1   
    73   66   73 1   
    74   74   75 1   
    75   74   78 1   
    76   75   76 1   
    77   75   79 1   
    78   75   80 1   
    79   76   77 2   
    80   76   81 1   
    81   81   82 1   
    82   81   93 1   
    83   82   83 1   
    84   82   85 1   
    85   82   94 1   
    86   83   84 2   
    87   83  102 1   
    88   85   86 1   
    89   85   95 1   
    90   85   96 1   
    91   86   87 ar  
    92   86   88 ar  
    93   87   89 ar  
    94   87   97 1   
    95   88   90 ar  
    96   88   98 1   
    97   89   91 ar  
    98   89   99 1   
    99   90   91 ar  
   100   90  100 1   
   101   91   92 1   
   102   92  101 1   
   103  102  103 1   
   104  102  110 1   
   105  103  104 1   
   106  103  106 1   
   107  103  111 1   
   108  104  105 2   
   109  104  121 1   
   110  106  107 1   
   111  106  108 1   
   112  106  112 1   
   113  107  109 1   
   114  107  113 1   
   115  107  114 1   
   116  108  115 1   
   117  108  116 1   
   118  108  117 1   
   119  109  118 1   
   120  109  119 1   
   121  109  120 1   
   122  121  122 1   
   123  121  127 1   
   124  122  123 1   
   125  122  125 1   
   126  122  128 1   
   127  123  124 2   
   128  123  132 1   
   129  125  126 1   
   130  125  129 1   
   131  125  130 1   
   132  126  131 1   
   133  132  133 1   
   134  132  137 1   
   135  133  134 1   
   136  133  136 1   
   137  133  138 1   
   138  134  135 2   
   139  134  142 1   
   140  136  139 1   
   141  136  140 1   
   142  136  141 1   
   143  142  143 1   
   144  142  147 1   
   145  143  144 1   
   146  143  146 1   
   147  143  148 1   
   148  144  145 2   
   149  144  152 1   
   150  146  149 1   
   151  146  150 1   
   152  146  151 1   
   153  152  153 1   
   154  152  161 1   
   155  153  154 1   
   156  153  156 1   
   157  153  162 1   
   158  154  155 2   
   159  154  167 1   
   160  156  157 1   
   161  156  163 1   
   162  156  164 1   
   163  157  158 1   
   164  157  165 1   
   165  157  166 1   
   166  158  159 1   
   167  158  160 1   
   168  167  168 1   
   169  167  172 1   
   170  168  169 1   
   171  168  170 1   
   172  168  171 1   
   173  174  175 1   
   174  174  176 1   
   175  177  178 1   
   176  177  179 1   
   177  180  181 1   
   178  180  182 1   
@<TRIPOS>SUBSTRUCTURE
     1 MOL         1 TEMP              0 ****  ****    0 ROOT
