@<TRIPOS>MOLECULE
MOL
  189   185     1     0     0
SMALL
resp


@<TRIPOS>ATOM
      1 C1          0.2270   -1.7790    6.3670 c3        1 MOL     -0.342336
      2 C2          0.6600   -1.8750    4.9230 c         1 MOL      0.711927
      3 O1         -0.0390   -2.5260    4.1530 o         1 MOL     -0.592967
      4 H1         -0.0750   -2.7650    6.7210 hc        1 MOL      0.089161
      5 H2          1.0580   -1.4160    6.9710 hc        1 MOL      0.089161
      6 H3         -0.6140   -1.0900    6.4500 hc        1 MOL      0.089161
      7 N1          1.7740   -1.2250    4.5050 n         1 MOL     -0.499874
      8 C3          2.2820   -1.2060    3.1420 c3        1 MOL     -0.050026
      9 C4          2.7810   -2.5430    2.6770 c         1 MOL      0.532512
     10 O2          3.7730   -3.0330    3.2250 o         1 MOL     -0.542671
     11 C5          3.3660   -0.0880    3.1260 c3        1 MOL     -0.149373
     12 C6          4.0730    0.0530    1.7530 c         1 MOL      0.841053
     13 O3          3.6330   -0.5410    0.7630 o         1 MOL     -0.755110
     14 O4          5.0810    0.7660    1.6690 o         1 MOL     -0.755110
     15 H4          2.2990   -0.6380    5.1450 hn        1 MOL      0.303317
     16 H5          1.4530   -0.9490    2.4770 h1        1 MOL      0.028384
     17 H6          4.1930   -0.2370    3.8120 hc        1 MOL      0.046906
     18 H7          2.8840    0.8530    3.3700 hc        1 MOL      0.046906
     19 N2          2.1030   -3.1300    1.6610 n         1 MOL     -0.091332
     20 C7          2.2670   -4.5000    1.2120 c3        1 MOL     -0.199957
     21 C8          3.6110   -4.8080    0.4480 c         1 MOL      0.661407
     22 O5          3.8780   -5.9980    0.3150 o         1 MOL     -0.583818
     23 C9          1.0820   -4.9170    0.2960 c3        1 MOL     -0.099499
     24 C10         0.8580   -4.0350   -0.9490 c3        1 MOL      0.457522
     25 C11        -0.1480   -4.8130   -1.8180 c3        1 MOL     -0.037827
     26 C12        -0.4810   -4.1910   -3.1820 c3        1 MOL      0.167403
     27 N3         -1.6360   -4.8930   -3.9010 n4        1 MOL     -0.392252
     28 H8          1.2840   -2.6090    1.3740 hn        1 MOL      0.192655
     29 H9          2.2750   -5.1190    2.1130 h1        1 MOL      0.111361
     30 H10         0.1900   -4.7820    0.8910 hc        1 MOL      0.040374
     31 H11         1.1850   -5.9700    0.0260 hc        1 MOL      0.040374
     32 H12         1.7820   -3.8930   -1.5000 hc        1 MOL     -0.157361
     33 H13         0.3790   -3.1130   -0.6180 hc        1 MOL     -0.157361
     34 H14        -1.0740   -4.8220   -1.2470 hc        1 MOL     -0.018937
     35 H15         0.1930   -5.8430   -1.9290 hc        1 MOL     -0.018937
     36 H16         0.3570   -4.2580   -3.8780 hx        1 MOL      0.050213
     37 H17        -0.9020   -3.1890   -3.0370 hx        1 MOL      0.050213
     38 H18        -2.4290   -4.9800   -3.2950 hn        1 MOL      0.316599
     39 H19        -1.8840   -4.4220   -4.7690 hn        1 MOL      0.316599
     40 H20        -1.3530   -5.8440   -4.0580 hn        1 MOL      0.316599
     41 N4          4.4090   -3.8110    0.1390 n         1 MOL     -0.382602
     42 C13         5.5960   -3.9650   -0.7350 c3        1 MOL      0.012341
     43 C14         6.7470   -2.9460   -0.4570 c         1 MOL      0.468782
     44 O6          7.7840   -3.0080   -1.0840 o         1 MOL     -0.516724
     45 C15         5.2340   -3.8980   -2.2010 c3        1 MOL     -0.120843
     46 C16         4.1260   -2.9020   -2.6310 c         1 MOL      0.861831
     47 O7          3.4560   -3.0630   -3.6990 o         1 MOL     -0.744562
     48 O8          3.9480   -1.9030   -1.8710 o         1 MOL     -0.744562
     49 H21         4.0930   -2.8800    0.3560 hn        1 MOL      0.016054
     50 H22         6.0460   -4.9640   -0.7260 h1        1 MOL      0.117384
     51 H23         4.8800   -4.8750   -2.5220 hc        1 MOL      0.024279
     52 H24         6.1390   -3.6110   -2.7260 hc        1 MOL      0.024279
     53 N5          6.6390   -2.0230    0.5040 n         1 MOL     -0.257379
     54 C17         7.6890   -1.0730    0.7700 c3        1 MOL     -0.288498
     55 C18         7.8440    0.1460   -0.2940 c         1 MOL      0.555182
     56 O9          8.8330    0.8860   -0.3020 o         1 MOL     -0.568471
     57 H25         5.7280   -1.8840    0.9140 hn        1 MOL      0.289835
     58 H26         8.6570   -1.5510    0.8420 h1        1 MOL      0.143323
     59 H27         7.5480   -0.5600    1.7190 h1        1 MOL      0.143323
     60 N6          6.9190    0.2630   -1.2790 n         1 MOL     -0.281484
     61 C19         6.9290    1.4970   -2.2180 c3        1 MOL     -0.140379
     62 C20         6.5820    2.7430   -1.4980 c         1 MOL      0.472047
     63 O10         6.5880    3.8480   -2.0230 o         1 MOL     -0.520898
     64 C21         5.9320    1.3410   -3.3800 c3        1 MOL     -0.203893
     65 C22         4.4400    1.4130   -2.9910 c         1 MOL      0.823966
     66 O11         3.6570    0.7680   -3.7150 o         1 MOL     -0.702759
     67 O12         3.9950    1.8230   -1.9160 o         1 MOL     -0.702759
     68 H28         6.1660   -0.4050   -1.3430 hn        1 MOL      0.212860
     69 H29         7.9430    1.5010   -2.6080 h1        1 MOL      0.151499
     70 H30         6.1180    0.4740   -4.0070 hc        1 MOL      0.080062
     71 H31         6.0770    2.1960   -4.0350 hc        1 MOL      0.080062
     72 N7          6.2720    2.6020   -0.1910 n         1 MOL     -0.202546
     73 C23         6.1780    3.8190    0.6630 c3        1 MOL     -0.070588
     74 C24         4.8700    4.5640    0.6070 c         1 MOL      0.474987
     75 O13         4.8630    5.7360    1.0290 o         1 MOL     -0.560866
     76 H32         6.4820    1.7250    0.2670 hn        1 MOL      0.272798
     77 H33         7.0300    4.4710    0.4620 h1        1 MOL      0.066645
     78 H34         6.2290    3.5000    1.7060 h1        1 MOL      0.066645
     79 N8          3.8390    3.9630    0.0250 n         1 MOL      0.005096
     80 C25         2.4810    4.4750   -0.1330 c3        1 MOL     -0.403977
     81 C26         1.4480    3.4430    0.2370 c         1 MOL      0.779971
     82 O14         1.5730    2.2550   -0.1310 o         1 MOL     -0.749234
     83 C27         2.1220    5.0180   -1.5260 c3        1 MOL      0.552025
     84 C28         2.7420    6.4230   -1.6220 c3        1 MOL     -0.421439
     85 O15         2.7390    4.1610   -2.5050 oh        1 MOL     -0.626311
     86 H35         3.9370    3.0020   -0.2730 hn        1 MOL      0.081469
     87 H36         2.3600    5.3160    0.5430 h1        1 MOL      0.108646
     88 H37         1.0570    5.1620   -1.6630 h1        1 MOL     -0.032939
     89 H38         3.2720    3.5010   -2.0690 ho        1 MOL      0.358784
     90 H39         3.8170    6.3950   -1.7420 hc        1 MOL      0.100526
     91 H40         2.2820    6.9450   -2.4630 hc        1 MOL      0.100526
     92 H41         2.5710    7.0460   -0.7370 hc        1 MOL      0.100526
     93 N9          0.3590    3.8490    0.9550 n         1 MOL     -0.718584
     94 C29        -0.7260    2.9410    1.3970 c3        1 MOL     -0.022098
     95 C30        -1.9830    3.4520    0.7170 c         1 MOL      0.621724
     96 O16        -2.4220    4.5530    0.9340 o         1 MOL     -0.556109
     97 C31        -0.8240    3.0870    2.9520 c3        1 MOL      0.145996
     98 C32         0.3950    2.4200    3.6510 c3        1 MOL      0.180343
     99 C33        -2.1440    2.5220    3.5350 c3        1 MOL     -0.167614
    100 C34         0.4500    2.8690    5.0860 c3        1 MOL     -0.040339
    101 H42         0.3300    4.8490    1.0850 hn        1 MOL      0.354931
    102 H43        -0.5450    1.8730    1.2170 h1        1 MOL      0.169227
    103 H44        -0.8310    4.1130    3.3190 hc        1 MOL      0.013751
    104 H45         1.3130    2.8290    3.2300 hc        1 MOL     -0.033034
    105 H46         0.3130    1.3330    3.5470 hc        1 MOL     -0.033034
    106 H47        -2.9960    3.0650    3.1410 hc        1 MOL      0.006213
    107 H48        -2.1740    1.4640    3.2700 hc        1 MOL      0.006213
    108 H49        -2.0550    2.5690    4.6130 hc        1 MOL      0.006213
    109 H50         1.3390    2.3880    5.4950 hc        1 MOL     -0.004107
    110 H51         0.5210    3.9480    5.1910 hc        1 MOL     -0.004107
    111 H52        -0.3310    2.4900    5.7410 hc        1 MOL     -0.004107
    112 N10        -2.5680    2.5040   -0.0510 n         1 MOL     -0.359791
    113 C35        -3.9120    2.6030   -0.7830 c3        1 MOL     -0.159049
    114 C36        -5.0300    2.1540    0.1600 c         1 MOL      0.502770
    115 O17        -4.7170    1.4910    1.1730 o         1 MOL     -0.348490
    116 C37        -3.9920    1.6880   -1.9850 c3        1 MOL      0.356286
    117 C38        -3.2130    2.2980   -3.1310 c3        1 MOL     -0.433798
    118 O18        -3.4550    0.3940   -1.7810 oh        1 MOL     -0.608257
    119 H53        -2.1110    1.6040   -0.0840 hn        1 MOL      0.281006
    120 H54        -4.0210    3.6390   -1.1070 h1        1 MOL      0.115096
    121 H55        -5.0500    1.6260   -2.2500 h1        1 MOL      0.000105
    122 H56        -2.5450    0.4660   -1.4760 ho        1 MOL      0.371159
    123 H57        -2.1360    2.3440   -2.9660 hc        1 MOL      0.111844
    124 H58        -3.3380    1.7740   -4.0830 hc        1 MOL      0.111844
    125 H59        -3.5580    3.3280   -3.2610 hc        1 MOL      0.111844
    126 N11        -6.3050    2.3650   -0.1940 n         1 MOL     -0.457693
    127 C39        -7.5250    1.8740    0.5360 c3        1 MOL     -0.121536
    128 C40        -7.5470    0.3990    0.5780 c         1 MOL      0.197926
    129 O19        -8.2540   -0.1380    1.4390 o         1 MOL     -0.499337
    130 C41        -8.8420    2.3420   -0.1810 c3        1 MOL      0.433000
    131 C42        -9.0770    3.8250   -0.1690 c3        1 MOL     -0.487769
    132 O20        -8.8420    1.9080   -1.5550 oh        1 MOL     -0.654298
    133 H60        -6.6060    2.8990   -0.9920 hn        1 MOL      0.287622
    134 H61        -7.4820    2.2130    1.5680 h1        1 MOL      0.166297
    135 H62        -9.6560    1.8120    0.3010 h1        1 MOL      0.034939
    136 H63        -9.5460    1.2800   -1.7230 ho        1 MOL      0.325085
    137 H64        -9.1390    4.1670    0.8660 hc        1 MOL      0.141399
    138 H65        -8.3890    4.3970   -0.7910 hc        1 MOL      0.141399
    139 H66       -10.0230    4.0340   -0.6780 hc        1 MOL      0.141399
    140 N12        -7.0060   -0.2790   -0.3900 n         1 MOL      0.065387
    141 C43        -6.8940   -1.7650   -0.4670 c3        1 MOL     -0.063116
    142 C44        -5.8010   -2.3030    0.4630 c         1 MOL      0.497821
    143 O21        -5.9110   -3.4230    0.8520 o         1 MOL     -0.500504
    144 C45        -6.6950   -2.1880   -1.9140 c3        1 MOL     -0.063574
    145 C46        -7.8990   -2.3670   -2.8950 c3        1 MOL     -0.012552
    146 C47        -8.6940   -1.0870   -3.0310 c3        1 MOL      0.075217
    147 C48        -9.7790   -1.4900   -4.0650 c3        1 MOL     -0.083944
    148 N13       -10.5400   -0.3120   -4.5920 n4        1 MOL     -0.085751
    149 H67        -6.6780    0.2460   -1.1920 hn        1 MOL      0.147320
    150 H68        -7.8090   -2.2110   -0.1000 h1        1 MOL      0.079425
    151 H69        -6.1600   -3.1400   -1.8470 hc        1 MOL      0.020953
    152 H70        -5.9400   -1.5410   -2.3730 hc        1 MOL      0.020953
    153 H71        -8.5360   -3.1950   -2.5760 hc        1 MOL      0.026481
    154 H72        -7.5330   -2.6100   -3.8860 hc        1 MOL      0.026481
    155 H73        -7.9740   -0.3510   -3.3960 hc        1 MOL      0.028043
    156 H74        -9.1250   -0.8650   -2.0570 hc        1 MOL      0.028043
    157 H75       -10.4400   -2.1810   -3.5560 hx        1 MOL      0.089978
    158 H76        -9.1730   -1.9710   -4.8290 hx        1 MOL      0.089978
    159 H77       -11.0980   -0.5670   -5.3960 hn        1 MOL      0.224799
    160 H78       -11.1330    0.0310   -3.8550 hn        1 MOL      0.224799
    161 H79       -10.0020    0.5260   -4.7940 hn        1 MOL      0.224799
    162 N14        -4.8070   -1.4700    0.8460 n         1 MOL     -0.193698
    163 C49        -3.8280   -1.8970    1.9150 c3        1 MOL     -0.079178
    164 C50        -4.3550   -1.8890    3.3550 c         1 MOL      0.507904
    165 O22        -4.2440   -2.9090    4.0180 o         1 MOL     -0.512831
    166 C51        -2.5410   -1.1040    1.8210 c3        1 MOL      0.224145
    167 C52        -1.7100   -1.7040    0.6660 c3        1 MOL     -0.140284
    168 C53        -0.8040   -0.7330    0.0280 c         1 MOL      0.841061
    169 O23         0.4130   -0.9030    0.2390 o         1 MOL     -0.763186
    170 O24        -1.1820    0.2470   -0.7570 o         1 MOL     -0.763186
    171 H80        -4.5780   -0.6630    0.2830 hn        1 MOL      0.024603
    172 H81        -3.6390   -2.9590    1.7690 h1        1 MOL      0.063311
    173 H82        -1.8790   -1.1630    2.6770 hc        1 MOL     -0.031179
    174 H83        -2.9140   -0.1120    1.5600 hc        1 MOL     -0.031179
    175 H84        -2.3290   -2.0250   -0.1730 hc        1 MOL      0.015401
    176 H85        -1.0850   -2.5090    1.0370 hc        1 MOL      0.015401
    177 N15        -4.9960   -0.7730    3.7210 n         1 MOL     -0.199126
    178 C54        -5.7840   -0.6030    4.8970 c3        1 MOL     -0.395902
    179 H86        -5.7680   -1.5230    5.4810 h1        1 MOL      0.144625
    180 H87        -5.3750    0.2120    5.4940 h1        1 MOL      0.144625
    181 H88        -6.8100   -0.3690    4.6170 h1        1 MOL      0.144625
    182 H89        -4.9210    0.0110    3.0870 hn        1 MOL      0.227701
    183 Ca1         2.2600   -0.0340   -1.2600 Ca        1 MOL      1.794591
    184 O25         0.3030    1.3090   -2.7510 oh        1 MOL     -0.782660
    185 H90        -0.3270    1.1310   -2.0530 ho        1 MOL      0.371616
    186 H91         0.0310    2.1480   -3.1250 ho        1 MOL      0.371616
    187 O26         1.3370   -1.4460   -3.3080 oh        1 MOL     -0.782660
    188 H92         1.9790   -2.1300   -3.4630 ho        1 MOL      0.371616
    189 H93         0.8850   -1.3410   -4.1480 ho        1 MOL      0.371616
@<TRIPOS>BOND
     1    1    2 1   
     2    1    4 1   
     3    1    5 1   
     4    1    6 1   
     5    2    3 2   
     6    2    7 1   
     7    7    8 1   
     8    7   15 1   
     9    8    9 1   
    10    8   11 1   
    11    8   16 1   
    12    9   10 2   
    13    9   19 1   
    14   11   12 1   
    15   11   17 1   
    16   11   18 1   
    17   12   13 1   
    18   12   14 1   
    19   19   20 1   
    20   19   28 1   
    21   20   21 1   
    22   20   23 1   
    23   20   29 1   
    24   21   22 2   
    25   21   41 1   
    26   23   24 1   
    27   23   30 1   
    28   23   31 1   
    29   24   25 1   
    30   24   32 1   
    31   24   33 1   
    32   25   26 1   
    33   25   34 1   
    34   25   35 1   
    35   26   27 1   
    36   26   36 1   
    37   26   37 1   
    38   27   38 1   
    39   27   39 1   
    40   27   40 1   
    41   41   42 1   
    42   41   49 1   
    43   42   43 1   
    44   42   45 1   
    45   42   50 1   
    46   43   44 2   
    47   43   53 1   
    48   45   46 1   
    49   45   51 1   
    50   45   52 1   
    51   46   47 1   
    52   46   48 1   
    53   53   54 1   
    54   53   57 1   
    55   54   55 1   
    56   54   58 1   
    57   54   59 1   
    58   55   56 2   
    59   55   60 1   
    60   60   61 1   
    61   60   68 1   
    62   61   62 1   
    63   61   64 1   
    64   61   69 1   
    65   62   63 2   
    66   62   72 1   
    67   64   65 1   
    68   64   70 1   
    69   64   71 1   
    70   65   66 1   
    71   65   67 1   
    72   72   73 1   
    73   72   76 1   
    74   73   74 1   
    75   73   77 1   
    76   73   78 1   
    77   74   75 2   
    78   74   79 1   
    79   79   80 1   
    80   79   86 1   
    81   80   81 1   
    82   80   83 1   
    83   80   87 1   
    84   81   82 2   
    85   81   93 1   
    86   83   84 1   
    87   83   85 1   
    88   83   88 1   
    89   84   90 1   
    90   84   91 1   
    91   84   92 1   
    92   85   89 1   
    93   93   94 1   
    94   93  101 1   
    95   94   95 1   
    96   94   97 1   
    97   94  102 1   
    98   95   96 2   
    99   95  112 1   
   100   97   98 1   
   101   97   99 1   
   102   97  103 1   
   103   98  100 1   
   104   98  104 1   
   105   98  105 1   
   106   99  106 1   
   107   99  107 1   
   108   99  108 1   
   109  100  109 1   
   110  100  110 1   
   111  100  111 1   
   112  112  113 1   
   113  112  119 1   
   114  113  114 1   
   115  113  116 1   
   116  113  120 1   
   117  114  115 2   
   118  114  126 1   
   119  116  117 1   
   120  116  118 1   
   121  116  121 1   
   122  117  123 1   
   123  117  124 1   
   124  117  125 1   
   125  118  122 1   
   126  126  127 1   
   127  126  133 1   
   128  127  128 1   
   129  127  130 1   
   130  127  134 1   
   131  128  129 2   
   132  128  140 1   
   133  130  131 1   
   134  130  132 1   
   135  130  135 1   
   136  131  137 1   
   137  131  138 1   
   138  131  139 1   
   139  132  136 1   
   140  140  141 1   
   141  140  149 1   
   142  141  142 1   
   143  141  144 1   
   144  141  150 1   
   145  142  143 2   
   146  142  162 1   
   147  144  145 1   
   148  144  151 1   
   149  144  152 1   
   150  145  146 1   
   151  145  153 1   
   152  145  154 1   
   153  146  147 1   
   154  146  155 1   
   155  146  156 1   
   156  147  148 1   
   157  147  157 1   
   158  147  158 1   
   159  148  159 1   
   160  148  160 1   
   161  148  161 1   
   162  162  163 1   
   163  162  171 1   
   164  163  164 1   
   165  163  166 1   
   166  163  172 1   
   167  164  165 2   
   168  164  177 1   
   169  166  167 1   
   170  166  173 1   
   171  166  174 1   
   172  167  168 1   
   173  167  175 1   
   174  167  176 1   
   175  168  169 1   
   176  168  170 1   
   177  177  178 1   
   178  177  182 1   
   179  178  179 1   
   180  178  180 1   
   181  178  181 1   
   182  184  185 1   
   183  184  186 1   
   184  187  188 1   
   185  187  189 1   
@<TRIPOS>SUBSTRUCTURE
     1 MOL         1 TEMP              0 ****  ****    0 ROOT
