@<TRIPOS>MOLECULE
MOL
  172   171     1     0     0
SMALL
resp


@<TRIPOS>ATOM
      1 C1          0.6210    3.8690    5.6150 c3        1 MOL     -0.309386
      2 C2          0.1610    3.6450    4.1970 c         1 MOL      0.693909
      3 O1          0.9030    3.8260    3.2470 o         1 MOL     -0.529052
      4 H1          1.6590    3.5490    5.7140 hc        1 MOL      0.068636
      5 H2          0.5430    4.9280    5.8590 hc        1 MOL      0.068636
      6 H3         -0.0040    3.2920    6.2950 hc        1 MOL      0.068636
      7 N1         -1.1220    3.5180    4.0660 n         1 MOL     -0.569582
      8 C3         -1.7810    3.3990    2.7290 c3        1 MOL      0.206462
      9 C4         -1.6290    4.5730    1.7540 c         1 MOL      0.637411
     10 O2         -1.4640    5.6750    2.1940 o         1 MOL     -0.584895
     11 C5         -3.2170    3.0490    2.9540 c3        1 MOL     -0.350091
     12 C6         -3.9600    2.6880    1.6730 c         1 MOL      0.710484
     13 O3         -5.0640    3.2310    1.5300 o         1 MOL     -0.650009
     14 O4         -3.3130    1.9880    0.8400 o         1 MOL     -0.650009
     15 H4         -1.6940    3.7380    4.8740 hn        1 MOL      0.303020
     16 H5         -1.3020    2.5230    2.2870 h1        1 MOL      0.020289
     17 H6         -3.6980    3.9140    3.4060 hc        1 MOL      0.062248
     18 H7         -3.3150    2.1600    3.5890 hc        1 MOL      0.062248
     19 N2         -1.8010    4.4110    0.4400 n         1 MOL     -0.563088
     20 C7         -1.9150    5.5000   -0.5670 c3        1 MOL      0.328455
     21 C8         -2.9650    5.1540   -1.6850 c         1 MOL      0.405897
     22 O5         -3.0190    5.8370   -2.7250 o         1 MOL     -0.576909
     23 C9         -0.5420    5.9890   -1.0670 c3        1 MOL     -0.246112
     24 H8         -1.9280    3.4800    0.0770 hn        1 MOL      0.344178
     25 H9         -2.4450    6.3420   -0.1160 h1        1 MOL      0.005762
     26 H10        -0.0480    6.4530   -0.2100 hc        1 MOL      0.061021
     27 H11         0.0810    5.1880   -1.4800 hc        1 MOL      0.061021
     28 H12        -0.6090    6.7860   -1.8030 hc        1 MOL      0.061021
     29 N3         -3.7350    4.0930   -1.5640 n         1 MOL     -0.289723
     30 C10        -4.6800    3.6750   -2.5850 c3        1 MOL      0.122994
     31 C11        -6.0160    2.9900   -2.0630 c         1 MOL      0.286934
     32 O6         -7.0220    3.1180   -2.8180 o         1 MOL     -0.545624
     33 C12        -4.0060    2.7270   -3.5200 c3        1 MOL      0.071636
     34 C13        -3.3640    1.5530   -2.8000 c         1 MOL      0.525955
     35 O7         -4.0680    0.8200   -2.1140 o         1 MOL     -0.674747
     36 O8         -2.1110    1.3810   -2.8030 o         1 MOL     -0.674747
     37 H13        -3.6480    3.6220   -0.6780 hn        1 MOL      0.162520
     38 H14        -5.0580    4.4290   -3.2760 h1        1 MOL      0.064344
     39 H15        -3.2960    3.2600   -4.1430 hc        1 MOL     -0.002853
     40 H16        -4.7080    2.4720   -4.3040 hc        1 MOL     -0.002853
     41 N4         -6.0710    2.2970   -0.8790 n         1 MOL     -0.033484
     42 C14        -7.2240    1.5990   -0.2590 c3        1 MOL     -0.210200
     43 C15        -7.3620    0.1090   -0.4970 c         1 MOL      0.598712
     44 O9         -8.3120   -0.5130    0.0030 o         1 MOL     -0.641768
     45 H17        -5.2300    2.2650   -0.3200 hn        1 MOL      0.096534
     46 H18        -8.1570    1.9780   -0.6880 h1        1 MOL      0.102117
     47 H19        -7.2990    1.6460    0.8260 h1        1 MOL      0.102117
     48 N5         -6.4310   -0.4970   -1.2460 n         1 MOL     -0.357658
     49 C16        -6.5330   -1.8650   -1.8210 c3        1 MOL      0.090122
     50 C17        -6.5120   -3.0400   -0.7760 c         1 MOL      0.433452
     51 O10        -6.6430   -4.1810   -1.1990 o         1 MOL     -0.524972
     52 C18        -5.4860   -2.0590   -2.9850 c3        1 MOL     -0.180488
     53 C19        -4.0420   -2.2120   -2.5410 c         1 MOL      0.503889
     54 N6         -3.2600   -2.7570   -3.4170 n         1 MOL     -0.534436
     55 O11        -3.6990   -2.0360   -1.3640 o         1 MOL     -0.483336
     56 H20        -5.5930   -0.0220   -1.5620 hn        1 MOL      0.234720
     57 H21        -7.4890   -1.9170   -2.3340 h1        1 MOL      0.074757
     58 H22        -5.6460   -1.1680   -3.5920 hc        1 MOL      0.061931
     59 H23        -5.8440   -2.9550   -3.4940 hc        1 MOL      0.061931
     60 H24        -3.6720   -2.8460   -4.3360 hn        1 MOL      0.312916
     61 H25        -2.2590   -2.7630   -3.2270 hn        1 MOL      0.312916
     62 N7         -6.4700   -2.7780    0.5650 n         1 MOL     -0.292211
     63 C20        -6.4540   -3.7580    1.6840 c3        1 MOL     -0.141098
     64 C21        -5.0360   -4.3470    1.9170 c         1 MOL      0.408752
     65 O12        -4.8500   -5.2960    2.6930 o         1 MOL     -0.540795
     66 H26        -6.5400   -1.7990    0.7890 hn        1 MOL      0.271470
     67 H27        -7.1720   -4.5550    1.5150 h1        1 MOL      0.111245
     68 H28        -6.9000   -3.2660    2.5450 h1        1 MOL      0.111245
     69 N8         -4.0430   -3.7730    1.2140 n         1 MOL     -0.066432
     70 C22        -2.6840   -4.4050    1.1710 c3        1 MOL     -0.222234
     71 C23        -1.5100   -3.4350    1.3820 c         1 MOL      0.583975
     72 O13        -1.5950   -2.2220    1.0410 o         1 MOL     -0.647794
     73 C24        -2.3490   -5.3680    0.0590 c3        1 MOL      0.611470
     74 C25        -3.3230   -6.5820    0.1020 c3        1 MOL     -0.541975
     75 O14        -2.3810   -4.7690   -1.2230 oh        1 MOL     -0.627194
     76 H29        -4.2180   -2.8440    0.8540 hn        1 MOL      0.120238
     77 H30        -2.6060   -5.0000    2.0810 h1        1 MOL      0.056692
     78 H31        -1.3770   -5.7980    0.3020 h1        1 MOL     -0.026261
     79 H32        -2.9640   -4.0100   -1.1790 ho        1 MOL      0.331950
     80 H33        -3.6060   -6.8500    1.1160 hc        1 MOL      0.124676
     81 H34        -4.2170   -6.3970   -0.4960 hc        1 MOL      0.124676
     82 H35        -2.8620   -7.4140   -0.4320 hc        1 MOL      0.124676
     83 N9         -0.4150   -3.8440    1.9810 n         1 MOL     -0.441155
     84 C26         0.7910   -3.0580    2.0540 c3        1 MOL      0.175597
     85 C27         1.5100   -3.3400    0.7760 c         1 MOL      0.325463
     86 O15         1.8270   -4.4570    0.4150 o         1 MOL     -0.554616
     87 C28         1.6520   -3.5340    3.2520 c3        1 MOL      0.021165
     88 C29         1.0990   -2.8110    4.5490 c3        1 MOL     -0.144785
     89 C30         3.1110   -3.2180    3.1690 c3        1 MOL     -0.013941
     90 C31         1.3940   -1.2880    4.7880 c3        1 MOL     -0.057461
     91 H36        -0.3590   -4.8050    2.2880 hn        1 MOL      0.260006
     92 H37         0.6310   -1.9900    2.1800 h1        1 MOL      0.131226
     93 H38         1.5180   -4.6080    3.3710 hc        1 MOL      0.019207
     94 H39         1.4990   -3.4630    5.3280 hc        1 MOL      0.026617
     95 H40         0.0150   -2.9080    4.5340 hc        1 MOL      0.026617
     96 H41         3.1690   -2.1600    2.8890 hc        1 MOL     -0.008178
     97 H42         3.6280   -3.4320    4.1060 hc        1 MOL     -0.008178
     98 H43         3.6850   -3.6980    2.3830 hc        1 MOL     -0.008178
     99 H44         1.2160   -0.5930    3.9710 hc        1 MOL      0.020214
    100 H45         0.8370   -0.9180    5.6480 hc        1 MOL      0.020214
    101 H46         2.4470   -1.2720    5.0400 hc        1 MOL      0.020214
    102 N10         1.7630   -2.2080    0.1290 n         1 MOL     -0.141292
    103 C32         2.5760   -2.0300   -1.0650 c3        1 MOL      0.223719
    104 C33         4.0220   -1.6120   -0.7750 c         1 MOL      0.344835
    105 O16         4.4210   -1.1600    0.3050 o         1 MOL     -0.300789
    106 C34         1.8850   -1.1490   -2.1190 c3        1 MOL     -0.155134
    107 C35         0.4280   -1.5250   -2.5410 c         1 MOL      0.628629
    108 O17        -0.5800   -1.5000   -1.7630 o         1 MOL     -0.671255
    109 O18         0.2610   -1.9410   -3.7370 o         1 MOL     -0.671255
    110 H47         1.5800   -1.3750    0.6820 hn        1 MOL      0.176913
    111 H48         2.6410   -2.9630   -1.6280 h1        1 MOL      0.028438
    112 H49         2.5310   -1.2510   -2.9870 hc        1 MOL      0.020100
    113 H50         1.7660   -0.0950   -1.8380 hc        1 MOL      0.020100
    114 N11         4.9630   -1.7060   -1.7450 n         1 MOL     -0.668186
    115 C36         6.3620   -1.3620   -1.6080 c3        1 MOL      0.360999
    116 C37         6.6540    0.1090   -1.1990 c         1 MOL      0.257970
    117 O19         7.3070    0.2970   -0.1680 o         1 MOL     -0.470670
    118 C38         7.2440   -1.7690   -2.8220 c3        1 MOL     -0.152935
    119 C39         8.7500   -1.7310   -2.3880 ca        1 MOL      0.000523
    120 C40         9.1480   -2.5250   -1.2870 ca        1 MOL     -0.091126
    121 C41         9.6480   -0.8730   -3.0860 ca        1 MOL     -0.091126
    122 C42        10.4460   -2.4110   -0.8330 ca        1 MOL     -0.181427
    123 C43        11.0350   -0.8940   -2.6610 ca        1 MOL     -0.181427
    124 C44        11.4110   -1.6290   -1.4950 ca        1 MOL     -0.047559
    125 H51         4.6860   -2.0020   -2.6670 hn        1 MOL      0.345494
    126 H52         6.6840   -2.0070   -0.7950 h1        1 MOL      0.086159
    127 H53         7.0370   -1.2070   -3.7280 hc        1 MOL      0.053685
    128 H54         7.0150   -2.7840   -3.1350 hc        1 MOL      0.053685
    129 H55         8.4040   -3.1070   -0.7810 ha        1 MOL      0.104901
    130 H56         9.3830   -0.3390   -3.9890 ha        1 MOL      0.104901
    131 H57        10.8260   -2.9280    0.0360 ha        1 MOL      0.124486
    132 H58        11.7220   -0.2140   -3.1500 ha        1 MOL      0.124486
    133 H59        12.4310   -1.5280   -1.1640 ha        1 MOL      0.090392
    134 N12         6.0700    1.1800   -1.7700 n         1 MOL     -0.081688
    135 C45         6.2540    2.5550   -1.3150 c3        1 MOL      0.114492
    136 C46         5.6670    2.7040    0.1160 c         1 MOL      0.290360
    137 O20         6.1160    3.5650    0.8580 o         1 MOL     -0.507787
    138 C47         5.5580    3.4480   -2.3090 c3        1 MOL     -0.207174
    139 C48         4.5830    2.4840   -3.0040 c3        1 MOL      0.029459
    140 C49         5.3460    1.1490   -3.0100 c3        1 MOL     -0.116170
    141 H60         7.2980    2.8410   -1.1980 h1        1 MOL      0.051770
    142 H61         5.1070    4.3230   -1.8610 hc        1 MOL      0.074377
    143 H62         6.3230    3.6590   -3.0530 hc        1 MOL      0.074377
    144 H63         3.6190    2.4990   -2.4820 hc        1 MOL      0.033511
    145 H64         4.3010    2.8180   -4.0110 hc        1 MOL      0.033511
    146 H65         4.5940    0.3650   -3.0100 h1        1 MOL      0.049440
    147 H66         5.9360    1.0630   -3.9220 h1        1 MOL      0.049440
    148 N13         4.6780    1.9040    0.4710 n         1 MOL     -0.009087
    149 C50         3.9950    1.9050    1.7860 c3        1 MOL     -0.093926
    150 C51         4.7270    1.1800    2.9350 c         1 MOL      0.376294
    151 O21         4.8270    1.7010    4.0220 o         1 MOL     -0.547403
    152 C52         2.5550    1.3750    1.6580 c3        1 MOL      0.045216
    153 C53         1.8000    1.9610    0.4570 c3        1 MOL     -0.031682
    154 C54         0.4170    1.3680    0.3050 c         1 MOL      0.697387
    155 O22         0.1780    0.2820    0.8790 o         1 MOL     -0.756743
    156 O23        -0.4850    1.8440   -0.3640 o         1 MOL     -0.756743
    157 H67         4.3270    1.1500   -0.0960 hn        1 MOL      0.155974
    158 H68         3.9010    2.9490    2.0830 h1        1 MOL      0.095097
    159 H69         2.0250    1.5910    2.5800 hc        1 MOL     -0.005479
    160 H70         2.6690    0.2930    1.5500 hc        1 MOL     -0.005479
    161 H71         2.4210    1.7580   -0.4150 hc        1 MOL      0.009820
    162 H72         1.7900    3.0510    0.5510 hc        1 MOL      0.009820
    163 N14         5.3650    0.0640    2.6320 n         1 MOL      0.099114
    164 C55         6.4020   -0.4980    3.3910 c3        1 MOL     -0.295728
    165 H73         6.0670   -1.4390    3.8240 h1        1 MOL      0.091303
    166 H74         7.2640   -0.6800    2.7490 h1        1 MOL      0.091303
    167 H75         6.6820    0.1890    4.1900 h1        1 MOL      0.091303
    168 H76         5.2680   -0.2670    1.6860 hn        1 MOL     -0.024853
    169 Ca1        -2.1810   -0.0690   -0.4750 Ca        1 MOL      1.696730
    170 O24        -4.1940   -0.7830    1.3350 oh        1 MOL     -0.879179
    171 H77        -5.0340   -0.6160    1.7580 ho        1 MOL      0.421928
    172 H78        -3.5430   -0.5110    1.9740 ho        1 MOL      0.421928
@<TRIPOS>BOND
     1    1    2 1   
     2    1    4 1   
     3    1    5 1   
     4    1    6 1   
     5    2    3 2   
     6    2    7 1   
     7    7    8 1   
     8    7   15 1   
     9    8    9 1   
    10    8   11 1   
    11    8   16 1   
    12    9   10 2   
    13    9   19 1   
    14   11   12 1   
    15   11   17 1   
    16   11   18 1   
    17   12   13 1   
    18   12   14 1   
    19   19   20 1   
    20   19   24 1   
    21   20   21 1   
    22   20   23 1   
    23   20   25 1   
    24   21   22 2   
    25   21   29 1   
    26   23   26 1   
    27   23   27 1   
    28   23   28 1   
    29   29   30 1   
    30   29   37 1   
    31   30   31 1   
    32   30   33 1   
    33   30   38 1   
    34   31   32 2   
    35   31   41 1   
    36   33   34 1   
    37   33   39 1   
    38   33   40 1   
    39   34   35 1   
    40   34   36 1   
    41   41   42 1   
    42   41   45 1   
    43   42   43 1   
    44   42   46 1   
    45   42   47 1   
    46   43   44 2   
    47   43   48 1   
    48   48   49 1   
    49   48   56 1   
    50   49   50 1   
    51   49   52 1   
    52   49   57 1   
    53   50   51 2   
    54   50   62 1   
    55   52   53 1   
    56   52   58 1   
    57   52   59 1   
    58   53   54 1   
    59   53   55 2   
    60   54   60 1   
    61   54   61 1   
    62   62   63 1   
    63   62   66 1   
    64   63   64 1   
    65   63   67 1   
    66   63   68 1   
    67   64   65 2   
    68   64   69 1   
    69   69   70 1   
    70   69   76 1   
    71   70   71 1   
    72   70   73 1   
    73   70   77 1   
    74   71   72 2   
    75   71   83 1   
    76   73   74 1   
    77   73   75 1   
    78   73   78 1   
    79   74   80 1   
    80   74   81 1   
    81   74   82 1   
    82   75   79 1   
    83   83   84 1   
    84   83   91 1   
    85   84   85 1   
    86   84   87 1   
    87   84   92 1   
    88   85   86 2   
    89   85  102 1   
    90   87   88 1   
    91   87   89 1   
    92   87   93 1   
    93   88   90 1   
    94   88   94 1   
    95   88   95 1   
    96   89   96 1   
    97   89   97 1   
    98   89   98 1   
    99   90   99 1   
   100   90  100 1   
   101   90  101 1   
   102  102  103 1   
   103  102  110 1   
   104  103  104 1   
   105  103  106 1   
   106  103  111 1   
   107  104  105 2   
   108  104  114 1   
   109  106  107 1   
   110  106  112 1   
   111  106  113 1   
   112  107  108 1   
   113  107  109 1   
   114  114  115 1   
   115  114  125 1   
   116  115  116 1   
   117  115  118 1   
   118  115  126 1   
   119  116  117 2   
   120  116  134 1   
   121  118  119 1   
   122  118  127 1   
   123  118  128 1   
   124  119  120 ar  
   125  119  121 ar  
   126  120  122 ar  
   127  120  129 1   
   128  121  123 ar  
   129  121  130 1   
   130  122  124 ar  
   131  122  131 1   
   132  123  124 ar  
   133  123  132 1   
   134  124  133 1   
   135  134  135 1   
   136  134  140 1   
   137  135  136 1   
   138  135  138 1   
   139  135  141 1   
   140  136  137 2   
   141  136  148 1   
   142  138  139 1   
   143  138  142 1   
   144  138  143 1   
   145  139  140 1   
   146  139  144 1   
   147  139  145 1   
   148  140  146 1   
   149  140  147 1   
   150  148  149 1   
   151  148  157 1   
   152  149  150 1   
   153  149  152 1   
   154  149  158 1   
   155  150  151 2   
   156  150  163 1   
   157  152  153 1   
   158  152  159 1   
   159  152  160 1   
   160  153  154 1   
   161  153  161 1   
   162  153  162 1   
   163  154  155 1   
   164  154  156 1   
   165  163  164 1   
   166  163  168 1   
   167  164  165 1   
   168  164  166 1   
   169  164  167 1   
   170  170  171 1   
   171  170  172 1   
@<TRIPOS>SUBSTRUCTURE
     1 MOL         1 TEMP              0 ****  ****    0 ROOT
