@<TRIPOS>MOLECULE
MOL
  189   185     1     0     0
SMALL
resp


@<TRIPOS>ATOM
      1 C1         -0.4420    1.2420    6.5790 c3        1 MOL     -0.367355
      2 C2         -0.6570    1.0670    5.0360 c         1 MOL      0.731957
      3 O1          0.2400    1.4440    4.2630 o         1 MOL     -0.610479
      4 H1         -0.6900    0.3110    7.0880 hc        1 MOL      0.091382
      5 H2          0.6000    1.4960    6.7740 hc        1 MOL      0.091382
      6 H3         -1.0860    2.0400    6.9470 hc        1 MOL      0.091382
      7 N1         -1.8300    0.6590    4.6580 n         1 MOL     -0.493124
      8 C3         -2.3390    0.8690    3.3600 c3        1 MOL     -0.021347
      9 C4         -2.6720    2.3600    3.1520 c         1 MOL      0.478013
     10 O2         -3.3190    3.0220    4.0140 o         1 MOL     -0.530123
     11 C5         -3.5920    0.0490    3.1810 c3        1 MOL     -0.141163
     12 C6         -4.1810   -0.1090    1.7200 c         1 MOL      0.704232
     13 O3         -5.3470   -0.5440    1.6900 o         1 MOL     -0.665842
     14 O4         -3.4410    0.1170    0.6860 o         1 MOL     -0.665842
     15 H4         -2.5000    0.2510    5.3010 hn        1 MOL      0.303101
     16 H5         -1.5290    0.5280    2.7130 h1        1 MOL      0.047058
     17 H6         -4.3460    0.3670    3.8930 hc        1 MOL      0.049965
     18 H7         -3.3810   -0.9950    3.4420 hc        1 MOL      0.049965
     19 N2         -2.2100    2.9530    2.0270 n         1 MOL     -0.143963
     20 C7         -2.5390    4.3490    1.7730 c3        1 MOL     -0.204446
     21 C8         -3.9020    4.6490    1.0800 c         1 MOL      0.608015
     22 O5         -4.4910    5.7350    1.2420 o         1 MOL     -0.594481
     23 C9         -1.2430    4.9130    1.1020 c3        1 MOL      0.025725
     24 C10        -1.2390    6.4650    0.7640 c3        1 MOL     -0.157331
     25 C11         0.0710    6.8520    0.1210 c3        1 MOL     -0.123338
     26 C12         0.0380    8.3770   -0.1840 c3        1 MOL      0.111258
     27 N3          1.1330    8.7500   -1.1980 n4        1 MOL     -0.343630
     28 H8         -1.5610    2.5060    1.3900 hn        1 MOL      0.162552
     29 H9         -2.6960    4.8830    2.7140 h1        1 MOL      0.097294
     30 H10        -1.0320    4.3350    0.1940 hc        1 MOL      0.059558
     31 H11        -0.4880    4.7200    1.8600 hc        1 MOL      0.059558
     32 H12        -1.3000    7.0480    1.6870 hc        1 MOL      0.079791
     33 H13        -2.1150    6.5600    0.1220 hc        1 MOL      0.079791
     34 H14         0.1330    6.2970   -0.8130 hc        1 MOL      0.055264
     35 H15         0.8520    6.6920    0.8650 hc        1 MOL      0.055264
     36 H16         0.1370    8.9560    0.7420 hx        1 MOL      0.076936
     37 H17        -0.9410    8.5830   -0.6050 hx        1 MOL      0.076936
     38 H18         2.0590    8.4190   -0.9400 hn        1 MOL      0.310547
     39 H19         0.9360    8.3300   -2.0820 hn        1 MOL      0.310547
     40 H20         1.3070    9.7440   -1.2830 hn        1 MOL      0.310547
     41 N4         -4.2730    3.7680    0.1920 n         1 MOL     -0.512511
     42 C13        -5.0510    4.1390   -1.0060 c3        1 MOL      0.178572
     43 C14        -6.0520    3.0300   -1.4160 c         1 MOL      0.399093
     44 O6         -6.7900    3.1460   -2.3870 o         1 MOL     -0.521118
     45 C15        -3.9980    4.3040   -2.1110 c3        1 MOL     -0.484372
     46 C16        -3.0710    3.0550   -2.2640 c         1 MOL      0.979961
     47 O7         -2.2050    3.0140   -3.2250 o         1 MOL     -0.792998
     48 O8         -3.1520    2.0600   -1.5510 o         1 MOL     -0.792998
     49 H21        -3.6830    2.9410    0.1620 hn        1 MOL      0.356094
     50 H22        -5.5980    5.0540   -0.7740 h1        1 MOL      0.085083
     51 H23        -3.4070    5.1860   -1.8330 hc        1 MOL      0.112583
     52 H24        -4.4580    4.5960   -3.0520 hc        1 MOL      0.112583
     53 N5         -6.1350    2.0370   -0.5590 n         1 MOL     -0.060486
     54 C17        -7.3770    1.3180   -0.3750 c3        1 MOL     -0.419369
     55 C18        -7.5880    0.1610   -1.3620 c         1 MOL      0.574979
     56 O9         -8.6770   -0.3720   -1.5500 o         1 MOL     -0.566640
     57 H25        -5.4120    1.9310    0.1330 hn        1 MOL      0.126305
     58 H26        -8.2410    1.9830   -0.4330 h1        1 MOL      0.171615
     59 H27        -7.3830    0.9440    0.6500 h1        1 MOL      0.171615
     60 N6         -6.5650   -0.3560   -2.0660 n         1 MOL     -0.254020
     61 C19        -6.6050   -1.6970   -2.6710 c3        1 MOL     -0.070652
     62 C20        -6.5980   -2.8170   -1.6000 c         1 MOL      0.378251
     63 O10        -7.0850   -3.9090   -1.9370 o         1 MOL     -0.521182
     64 C21        -5.3950   -1.9290   -3.6660 c3        1 MOL     -0.122422
     65 C22        -4.0820   -1.4570   -2.9990 c         1 MOL      0.576987
     66 O11        -3.4820   -0.4320   -3.3760 o         1 MOL     -0.642585
     67 O12        -3.6620   -2.0870   -1.9970 o         1 MOL     -0.642585
     68 H28        -5.6580    0.0730   -1.9280 hn        1 MOL      0.185916
     69 H29        -7.4350   -1.6790   -3.3730 h1        1 MOL      0.140752
     70 H30        -5.5200   -1.3760   -4.5960 hc        1 MOL      0.045055
     71 H31        -5.2950   -3.0000   -3.8380 hc        1 MOL      0.045055
     72 N7         -6.2750   -2.5730   -0.2990 n         1 MOL     -0.012208
     73 C23        -6.3870   -3.6590    0.7250 c3        1 MOL     -0.291555
     74 C24        -5.0740   -4.5530    0.8120 c         1 MOL      0.516742
     75 O13        -5.0950   -5.7300    1.2640 o         1 MOL     -0.559593
     76 H32        -5.9680   -1.6700    0.0440 hn        1 MOL      0.120574
     77 H33        -7.2860   -4.2190    0.4960 h1        1 MOL      0.132897
     78 H34        -6.4060   -3.2180    1.7290 h1        1 MOL      0.132897
     79 N8         -3.9620   -4.0030    0.3140 n         1 MOL     -0.145771
     80 C25        -2.6220   -4.6380    0.1730 c3        1 MOL     -0.422631
     81 C26        -1.4690   -3.6950    0.3240 c         1 MOL      0.843243
     82 O14        -1.6500   -2.5610   -0.0500 o         1 MOL     -0.715883
     83 C27        -2.4150   -5.2520   -1.1940 c3        1 MOL      0.539188
     84 C28        -3.3670   -6.2850   -1.5280 c3        1 MOL     -0.209855
     85 O15        -2.3140   -4.2870   -2.2230 oh        1 MOL     -0.669055
     86 H35        -4.0040   -3.0160    0.1380 hn        1 MOL      0.186504
     87 H36        -2.4660   -5.4270    0.9020 h1        1 MOL      0.117156
     88 H37        -1.4720   -5.7940   -1.1320 h1        1 MOL     -0.014456
     89 H38        -3.0200   -3.6540   -2.0670 ho        1 MOL      0.425905
     90 H39        -4.2870   -5.7380   -1.7140 hc        1 MOL      0.042345
     91 H40        -2.9770   -6.8520   -2.3770 hc        1 MOL      0.042345
     92 H41        -3.4920   -6.9710   -0.6900 hc        1 MOL      0.042345
     93 N9         -0.2810   -4.1460    0.8170 n         1 MOL     -0.676162
     94 C29         0.8660   -3.2780    1.1590 c3        1 MOL      0.204079
     95 C30         2.0090   -3.6150    0.1380 c         1 MOL      0.505511
     96 O16         2.2750   -4.7830   -0.1530 o         1 MOL     -0.555207
     97 C31         1.1820   -3.5180    2.6430 c3        1 MOL     -0.064164
     98 C32         0.2670   -2.7520    3.5290 c3        1 MOL      0.158548
     99 C33         2.6620   -3.0910    2.9780 c3        1 MOL     -0.123096
    100 C34         0.3910   -2.8360    5.0240 c3        1 MOL     -0.279886
    101 H42        -0.3180   -5.0910    1.1730 hn        1 MOL      0.319706
    102 H43         0.6050   -2.2220    1.0990 h1        1 MOL      0.046851
    103 H44         1.0010   -4.5540    2.9440 hc        1 MOL      0.047592
    104 H45        -0.7610   -3.0650    3.3420 hc        1 MOL     -0.004502
    105 H46         0.3530   -1.7040    3.2380 hc        1 MOL     -0.004502
    106 H47         2.9020   -3.1690    4.0430 hc        1 MOL      0.026752
    107 H48         3.3570   -3.6650    2.3630 hc        1 MOL      0.026752
    108 H49         2.8190   -2.0200    2.8390 hc        1 MOL      0.026752
    109 H50        -0.4590   -2.2830    5.4170 hc        1 MOL      0.057665
    110 H51         0.2790   -3.8250    5.4740 hc        1 MOL      0.057665
    111 H52         1.2280   -2.3100    5.4880 hc        1 MOL      0.057665
    112 N10         2.5570   -2.5590   -0.4430 n         1 MOL     -0.200275
    113 C35         3.6720   -2.5180   -1.4200 c3        1 MOL     -0.090784
    114 C36         5.0390   -2.5110   -0.7010 c         1 MOL      0.348712
    115 O17         5.0660   -2.2650    0.5660 o         1 MOL     -0.427342
    116 C37         3.6160   -1.2020   -2.2660 c3        1 MOL      0.181095
    117 C38         2.4380   -1.3060   -3.2420 c3        1 MOL     -0.222681
    118 O18         3.4480   -0.1200   -1.3880 oh        1 MOL     -0.435814
    119 H53         2.0900   -1.6810   -0.2560 hn        1 MOL      0.089381
    120 H54         3.6780   -3.3490   -2.1190 h1        1 MOL      0.100106
    121 H55         4.5220   -1.1190   -2.8570 h1        1 MOL      0.048171
    122 H56         2.5290    0.0730   -1.2080 ho        1 MOL      0.308626
    123 H57         2.5510   -2.1580   -3.9160 hc        1 MOL      0.080088
    124 H58         1.4950   -1.3340   -2.6960 hc        1 MOL      0.080088
    125 H59         2.5070   -0.3160   -3.6930 hc        1 MOL      0.080088
    126 N11         6.1860   -2.5320   -1.3470 n         1 MOL     -0.254698
    127 C39         7.4520   -2.3050   -0.7640 c3        1 MOL     -0.092726
    128 C40         7.7140   -0.9290   -0.1790 c         1 MOL      0.365904
    129 O19         8.6930   -0.7780    0.5310 o         1 MOL     -0.497514
    130 C41         8.5660   -2.7370   -1.8310 c3        1 MOL      0.246350
    131 C42         8.7350   -4.2440   -2.0450 c3        1 MOL     -0.285233
    132 O20         8.2560   -2.1370   -3.1110 oh        1 MOL     -0.673829
    133 H60         6.2100   -2.7010   -2.3480 hn        1 MOL      0.247549
    134 H61         7.6260   -2.9210    0.1240 h1        1 MOL      0.140691
    135 H62         9.5210   -2.3650   -1.4550 h1        1 MOL      0.048523
    136 H63         8.8270   -2.5400   -3.7660 ho        1 MOL      0.429459
    137 H64         8.9610   -4.7530   -1.1010 hc        1 MOL      0.087737
    138 H65         7.7780   -4.6330   -2.3830 hc        1 MOL      0.087737
    139 H66         9.4570   -4.4990   -2.8210 hc        1 MOL      0.087737
    140 N12         6.8350   -0.0140   -0.4930 n         1 MOL     -0.159885
    141 C43         6.8530    1.3730   -0.0450 c3        1 MOL      0.018104
    142 C44         5.9850    1.6320    1.2320 c         1 MOL      0.335454
    143 O21         6.5610    2.1210    2.2140 o         1 MOL     -0.472472
    144 C45         6.3270    2.4040   -1.1290 c3        1 MOL     -0.027510
    145 C46         7.1320    2.3170   -2.4160 c3        1 MOL      0.034689
    146 C47         6.6490    3.5030   -3.2730 c3        1 MOL      0.005062
    147 C48         7.3730    3.8360   -4.5490 c3        1 MOL     -0.014044
    148 N13         8.7760    4.1570   -4.2560 n4        1 MOL     -0.321680
    149 H67         6.2270   -0.1860   -1.2760 hn        1 MOL      0.241308
    150 H68         7.8590    1.6690    0.2400 h1        1 MOL      0.077216
    151 H69         6.3930    3.4240   -0.7590 hc        1 MOL      0.015300
    152 H70         5.3010    2.1450   -1.4060 hc        1 MOL      0.015300
    153 H71         7.0180    1.3360   -2.8630 hc        1 MOL     -0.014849
    154 H72         8.1920    2.4280   -2.1620 hc        1 MOL     -0.014849
    155 H73         6.6260    4.4180   -2.6700 hc        1 MOL      0.028227
    156 H74         5.6390    3.3300   -3.6460 hc        1 MOL      0.028227
    157 H75         6.8990    4.7100   -4.9880 hx        1 MOL      0.099159
    158 H76         7.2720    2.9710   -5.2040 hx        1 MOL      0.099159
    159 H77         8.8020    4.7920   -3.4760 hn        1 MOL      0.320808
    160 H78         9.3200    3.3720   -3.9070 hn        1 MOL      0.320808
    161 H79         9.2060    4.6120   -5.0420 hn        1 MOL      0.320808
    162 N14         4.7170    1.0900    1.2530 n         1 MOL     -0.204264
    163 C49         3.9260    0.8960    2.4710 c3        1 MOL     -0.313599
    164 C50         4.6740    0.1230    3.5200 c         1 MOL      0.492313
    165 O22         4.5570    0.4460    4.7170 o         1 MOL     -0.542800
    166 C51         2.5760    0.2950    1.9340 c3        1 MOL      0.196222
    167 C52         1.8640    1.3480    1.0460 c3        1 MOL      0.109683
    168 C53         0.6170    0.7730    0.3380 c         1 MOL      0.608861
    169 O23        -0.3890    1.4690    0.1590 o         1 MOL     -0.686299
    170 O24         0.6510   -0.3450   -0.2050 o         1 MOL     -0.686299
    171 H80         4.4030    0.7570    0.3540 hn        1 MOL      0.114868
    172 H81         3.7820    1.8930    2.8790 h1        1 MOL      0.147069
    173 H82         1.8330    0.0550    2.6830 hc        1 MOL      0.052704
    174 H83         2.8980   -0.6030    1.3950 hc        1 MOL      0.052704
    175 H84         2.5290    1.7090    0.2620 hc        1 MOL     -0.059148
    176 H85         1.5360    2.2480    1.5610 hc        1 MOL     -0.059148
    177 N15         5.3070   -0.9380    3.0820 n         1 MOL     -0.002192
    178 C54         6.1180   -1.8000    3.9390 c3        1 MOL     -0.159303
    179 H86         5.4640   -2.4380    4.5330 h1        1 MOL      0.068457
    180 H87         6.7670   -2.4210    3.3210 h1        1 MOL      0.068457
    181 H88         6.7260   -1.1860    4.6020 h1        1 MOL      0.068457
    182 H89         4.9970   -1.4040    2.2460 hn        1 MOL      0.081914
    183 Ca1        -1.8730   -0.2230   -1.2870 Ca        1 MOL      1.755201
    184 O25        -0.6570   -2.3050   -2.9530 oh        1 MOL     -0.880014
    185 H90        -1.2190   -2.9390   -2.5070 ho        1 MOL      0.405853
    186 H91        -0.4750   -2.7060   -3.8030 ho        1 MOL      0.405853
    187 O26        -0.5260    0.9400   -3.2720 oh        1 MOL     -0.880014
    188 H92        -1.0820    1.7150   -3.3730 ho        1 MOL      0.405853
    189 H93         0.1880    1.0720   -3.8930 ho        1 MOL      0.405853
@<TRIPOS>BOND
     1    1    2 1   
     2    1    4 1   
     3    1    5 1   
     4    1    6 1   
     5    2    3 2   
     6    2    7 1   
     7    7    8 1   
     8    7   15 1   
     9    8    9 1   
    10    8   11 1   
    11    8   16 1   
    12    9   10 2   
    13    9   19 1   
    14   11   12 1   
    15   11   17 1   
    16   11   18 1   
    17   12   13 1   
    18   12   14 1   
    19   19   20 1   
    20   19   28 1   
    21   20   21 1   
    22   20   23 1   
    23   20   29 1   
    24   21   22 2   
    25   21   41 1   
    26   23   24 1   
    27   23   30 1   
    28   23   31 1   
    29   24   25 1   
    30   24   32 1   
    31   24   33 1   
    32   25   26 1   
    33   25   34 1   
    34   25   35 1   
    35   26   27 1   
    36   26   36 1   
    37   26   37 1   
    38   27   38 1   
    39   27   39 1   
    40   27   40 1   
    41   41   42 1   
    42   41   49 1   
    43   42   43 1   
    44   42   45 1   
    45   42   50 1   
    46   43   44 2   
    47   43   53 1   
    48   45   46 1   
    49   45   51 1   
    50   45   52 1   
    51   46   47 1   
    52   46   48 1   
    53   53   54 1   
    54   53   57 1   
    55   54   55 1   
    56   54   58 1   
    57   54   59 1   
    58   55   56 2   
    59   55   60 1   
    60   60   61 1   
    61   60   68 1   
    62   61   62 1   
    63   61   64 1   
    64   61   69 1   
    65   62   63 2   
    66   62   72 1   
    67   64   65 1   
    68   64   70 1   
    69   64   71 1   
    70   65   66 1   
    71   65   67 1   
    72   72   73 1   
    73   72   76 1   
    74   73   74 1   
    75   73   77 1   
    76   73   78 1   
    77   74   75 2   
    78   74   79 1   
    79   79   80 1   
    80   79   86 1   
    81   80   81 1   
    82   80   83 1   
    83   80   87 1   
    84   81   82 2   
    85   81   93 1   
    86   83   84 1   
    87   83   85 1   
    88   83   88 1   
    89   84   90 1   
    90   84   91 1   
    91   84   92 1   
    92   85   89 1   
    93   93   94 1   
    94   93  101 1   
    95   94   95 1   
    96   94   97 1   
    97   94  102 1   
    98   95   96 2   
    99   95  112 1   
   100   97   98 1   
   101   97   99 1   
   102   97  103 1   
   103   98  100 1   
   104   98  104 1   
   105   98  105 1   
   106   99  106 1   
   107   99  107 1   
   108   99  108 1   
   109  100  109 1   
   110  100  110 1   
   111  100  111 1   
   112  112  113 1   
   113  112  119 1   
   114  113  114 1   
   115  113  116 1   
   116  113  120 1   
   117  114  115 2   
   118  114  126 1   
   119  116  117 1   
   120  116  118 1   
   121  116  121 1   
   122  117  123 1   
   123  117  124 1   
   124  117  125 1   
   125  118  122 1   
   126  126  127 1   
   127  126  133 1   
   128  127  128 1   
   129  127  130 1   
   130  127  134 1   
   131  128  129 2   
   132  128  140 1   
   133  130  131 1   
   134  130  132 1   
   135  130  135 1   
   136  131  137 1   
   137  131  138 1   
   138  131  139 1   
   139  132  136 1   
   140  140  141 1   
   141  140  149 1   
   142  141  142 1   
   143  141  144 1   
   144  141  150 1   
   145  142  143 2   
   146  142  162 1   
   147  144  145 1   
   148  144  151 1   
   149  144  152 1   
   150  145  146 1   
   151  145  153 1   
   152  145  154 1   
   153  146  147 1   
   154  146  155 1   
   155  146  156 1   
   156  147  148 1   
   157  147  157 1   
   158  147  158 1   
   159  148  159 1   
   160  148  160 1   
   161  148  161 1   
   162  162  163 1   
   163  162  171 1   
   164  163  164 1   
   165  163  166 1   
   166  163  172 1   
   167  164  165 2   
   168  164  177 1   
   169  166  167 1   
   170  166  173 1   
   171  166  174 1   
   172  167  168 1   
   173  167  175 1   
   174  167  176 1   
   175  168  169 1   
   176  168  170 1   
   177  177  178 1   
   178  177  182 1   
   179  178  179 1   
   180  178  180 1   
   181  178  181 1   
   182  184  185 1   
   183  184  186 1   
   184  187  188 1   
   185  187  189 1   
@<TRIPOS>SUBSTRUCTURE
     1 MOL         1 TEMP              0 ****  ****    0 ROOT
