@<TRIPOS>MOLECULE
MOL
  186   183     1     0     0
SMALL
resp


@<TRIPOS>ATOM
      1 C1          0.0620    2.2250   -5.4060 c3        1 MOL     -0.288219
      2 C2          0.6720    2.0550   -3.9640 c         1 MOL      0.614176
      3 O1         -0.0200    2.4440   -3.0270 o         1 MOL     -0.558437
      4 H1         -1.0250    2.2600   -5.3380 hc        1 MOL      0.084413
      5 H2          0.4280    3.1520   -5.8480 hc        1 MOL      0.084413
      6 H3          0.3600    1.3820   -6.0290 hc        1 MOL      0.084413
      7 N1          1.9160    1.5340   -3.7860 n         1 MOL     -0.526670
      8 C3          2.5600    1.2550   -2.5470 c3        1 MOL      0.278196
      9 C4          3.0510    2.6020   -1.9320 c         1 MOL      0.325256
     10 O2          4.2130    2.8930   -1.9870 o         1 MOL     -0.459912
     11 C5          3.6460    0.1870   -2.7600 c3        1 MOL     -0.189422
     12 C6          4.3730   -0.1280   -1.4780 c         1 MOL      0.561042
     13 O3          3.7480   -0.0450   -0.3760 o         1 MOL     -0.593024
     14 O4          5.5340   -0.6260   -1.5180 o         1 MOL     -0.593024
     15 H4          2.4890    1.1590   -4.5190 hn        1 MOL      0.287685
     16 H5          1.8510    0.7500   -1.8870 h1        1 MOL     -0.040793
     17 H6          4.3780    0.6340   -3.4310 hc        1 MOL      0.055845
     18 H7          3.1850   -0.7110   -3.1900 hc        1 MOL      0.055845
     19 N2          2.2360    3.4840   -1.3320 n         1 MOL     -0.131668
     20 C7          2.4790    4.8710   -1.0140 c3        1 MOL     -0.085431
     21 C8          3.2710    5.0680    0.3170 c         1 MOL      0.502703
     22 O5          4.0770    6.0260    0.4100 o         1 MOL     -0.558402
     23 C9          1.2030    5.6360   -1.0460 c3        1 MOL     -0.025462
     24 C10         1.4460    7.1190   -0.7020 c3        1 MOL     -0.277359
     25 C11         0.1430    7.8620   -0.6730 c3        1 MOL     -0.013738
     26 C12        -0.1290    8.8560   -1.7590 c3        1 MOL      0.093807
     27 N3         -1.2490    9.7630   -1.5750 n4        1 MOL     -0.452779
     28 H8          1.2640    3.2560   -1.4440 hn        1 MOL      0.171488
     29 H9          3.2160    5.1670   -1.7580 h1        1 MOL      0.097786
     30 H10         0.5550    5.2460   -0.2700 hc        1 MOL      0.081005
     31 H11         0.6020    5.7270   -1.9530 hc        1 MOL      0.081005
     32 H12         2.1540    7.5700   -1.3930 hc        1 MOL      0.110530
     33 H13         1.8290    7.1730    0.3140 hc        1 MOL      0.110530
     34 H14         0.0750    8.5050    0.2080 hc        1 MOL      0.041972
     35 H15        -0.7390    7.2400   -0.5110 hc        1 MOL      0.041972
     36 H16        -0.3020    8.3570   -2.7140 hx        1 MOL      0.070253
     37 H17         0.7620    9.4190   -2.0090 hx        1 MOL      0.070253
     38 H18        -1.0680   10.5290   -0.9510 hn        1 MOL      0.351130
     39 H19        -1.3730   10.3340   -2.4020 hn        1 MOL      0.351130
     40 H20        -2.0620    9.2670   -1.2530 hn        1 MOL      0.351130
     41 N4          3.2000    4.1270    1.3550 n         1 MOL     -0.431514
     42 C13         4.1570    4.0080    2.5110 c3        1 MOL      0.211766
     43 C14         5.4230    3.1980    2.1010 c         1 MOL      0.386836
     44 O6          6.4080    3.2180    2.8000 o         1 MOL     -0.529234
     45 C15         3.3410    3.4850    3.7000 c3        1 MOL     -0.369210
     46 C16         2.5370    2.2360    3.4260 c         1 MOL      0.860584
     47 O7          2.8170    1.4870    2.4600 o         1 MOL     -0.723811
     48 O8          1.5400    1.9650    4.1760 o         1 MOL     -0.723811
     49 H21         2.5740    3.3510    1.2010 hn        1 MOL      0.235951
     50 H22         4.5230    5.0030    2.7480 h1        1 MOL      0.058217
     51 H23         2.6370    4.2700    3.9990 hc        1 MOL      0.082919
     52 H24         3.9700    3.3200    4.5810 hc        1 MOL      0.082919
     53 N5          5.3240    2.3660    1.0300 n         1 MOL      0.053195
     54 C17         6.4670    1.7840    0.3290 c3        1 MOL     -0.090518
     55 C18         7.0250    0.5470    0.9360 c         1 MOL      0.579757
     56 O9          8.1980    0.5090    1.2320 o         1 MOL     -0.581425
     57 H25         4.4630    2.2490    0.5140 hn        1 MOL     -0.057258
     58 H26         7.2070    2.5900    0.2910 h1        1 MOL      0.062085
     59 H27         6.2160    1.6350   -0.7260 h1        1 MOL      0.062085
     60 N6          6.1520   -0.4320    1.2130 n         1 MOL     -0.253778
     61 C19         6.5680   -1.4670    2.1050 c3        1 MOL      0.024205
     62 C20         6.9030   -2.7230    1.3650 c         1 MOL      0.435410
     63 O10         7.2950   -3.6650    1.9590 o         1 MOL     -0.542373
     64 C21         5.5780   -1.6180    3.2770 c3        1 MOL     -0.220302
     65 C22         4.1200   -1.8230    2.8260 c         1 MOL      0.865686
     66 O11         3.7640   -2.3420    1.7850 o         1 MOL     -0.740172
     67 O12         3.1820   -1.2780    3.4250 o         1 MOL     -0.740172
     68 H28         5.1780   -0.4580    0.9500 hn        1 MOL      0.023366
     69 H29         7.5360   -1.2890    2.5810 h1        1 MOL      0.098275
     70 H30         5.5380   -0.7210    3.8890 hc        1 MOL      0.076321
     71 H31         5.7990   -2.4470    3.9500 hc        1 MOL      0.076321
     72 N7          6.6700   -2.7660    0.0540 n         1 MOL     -0.187089
     73 C23         6.7320   -3.9870   -0.7230 c3        1 MOL     -0.225615
     74 C24         5.4140   -4.7240   -0.9840 c         1 MOL      0.622826
     75 O13         5.3860   -5.7730   -1.6130 o         1 MOL     -0.595604
     76 H32         6.2640   -1.9280   -0.3390 hn        1 MOL      0.203107
     77 H33         7.4890   -4.6370   -0.2950 h1        1 MOL      0.102938
     78 H34         7.0140   -3.6520   -1.7300 h1        1 MOL      0.102938
     79 N8          4.2660   -4.2760   -0.4660 n         1 MOL     -0.213114
     80 C25         2.9410   -4.9300   -0.5680 c3        1 MOL     -0.516592
     81 C26         1.7880   -3.8640   -0.7840 c         1 MOL      0.753853
     82 O14         1.6950   -2.7770   -0.1180 o         1 MOL     -0.718382
     83 C27         2.5400   -5.7720    0.6350 c3        1 MOL      0.571660
     84 C28         3.1460   -7.2340    0.5870 c3        1 MOL     -0.449746
     85 O15         2.9810   -5.1040    1.8450 oh        1 MOL     -0.628193
     86 H35         4.4160   -3.5720    0.2400 hn        1 MOL      0.290653
     87 H36         2.9110   -5.5680   -1.4510 h1        1 MOL      0.185498
     88 H37         1.4650   -5.8230    0.7820 h1        1 MOL     -0.017448
     89 H38         3.3300   -4.2440    1.5920 ho        1 MOL      0.353093
     90 H39         4.2070   -7.3170    0.8230 hc        1 MOL      0.113109
     91 H40         2.5550   -7.7860    1.3140 hc        1 MOL      0.113109
     92 H41         2.9200   -7.7050   -0.3690 hc        1 MOL      0.113109
     93 N9          0.7870   -4.1900   -1.5450 n         1 MOL     -0.570246
     94 C29        -0.3020   -3.2950   -1.9530 c3        1 MOL      0.055128
     95 C30        -1.6720   -3.7230   -1.3400 c         1 MOL      0.594213
     96 O16        -2.0380   -4.8820   -1.4540 o         1 MOL     -0.591387
     97 C31        -0.4620   -3.1860   -3.4410 c3        1 MOL      0.039668
     98 C32         0.7530   -2.4860   -4.0840 c3        1 MOL      0.275496
     99 C33        -1.8160   -2.4700   -3.8760 c3        1 MOL     -0.400404
    100 C34         0.8930   -2.5000   -5.6220 c3        1 MOL     -0.314856
    101 H42         0.8050   -5.0970   -1.9990 hn        1 MOL      0.296007
    102 H43        -0.0920   -2.2570   -1.6910 h1        1 MOL      0.057998
    103 H44        -0.4780   -4.2320   -3.7370 hc        1 MOL      0.028036
    104 H45         1.6960   -2.9060   -3.7270 hc        1 MOL     -0.026882
    105 H46         0.7970   -1.4410   -3.7970 hc        1 MOL     -0.026882
    106 H47        -2.6450   -3.0670   -3.5050 hc        1 MOL      0.081693
    107 H48        -1.9440   -1.4430   -3.5430 hc        1 MOL      0.081693
    108 H49        -1.9200   -2.4630   -4.9630 hc        1 MOL      0.081693
    109 H50         1.0210   -3.5310   -5.9410 hc        1 MOL      0.063504
    110 H51         0.0150   -2.0620   -6.0820 hc        1 MOL      0.063504
    111 H52         1.7090   -1.8040   -5.8180 hc        1 MOL      0.063504
    112 N10        -2.3470   -2.8340   -0.6960 n         1 MOL     -0.190194
    113 C35        -3.5760   -3.0410    0.0830 c3        1 MOL     -0.071863
    114 C36        -4.9610   -2.6220   -0.5180 c         1 MOL      0.449062
    115 O17        -5.0600   -1.9190   -1.5590 o         1 MOL     -0.446337
    116 C37        -3.4410   -2.4870    1.5800 c3        1 MOL      0.184945
    117 C38        -2.0730   -2.5800    2.2910 c3        1 MOL     -0.613904
    118 O18        -3.6960   -1.0840    1.5560 oh        1 MOL     -0.551285
    119 H53        -2.0690   -1.8620   -0.6430 hn        1 MOL      0.352488
    120 H54        -3.7070   -4.1100    0.2210 h1        1 MOL      0.059984
    121 H55        -4.1310   -2.9520    2.2720 h1        1 MOL      0.023014
    122 H56        -3.0700   -0.7500    2.1980 ho        1 MOL      0.384523
    123 H57        -2.2470   -2.2500    3.3200 hc        1 MOL      0.175707
    124 H58        -1.7710   -3.6310    2.2720 hc        1 MOL      0.175707
    125 H59        -1.3190   -1.9790    1.7870 hc        1 MOL      0.175707
    126 N11        -6.0130   -3.0430    0.1160 n         1 MOL     -0.320107
    127 C39        -7.3360   -2.4300   -0.3040 c3        1 MOL     -0.094724
    128 C40        -7.3860   -0.9010   -0.3740 c         1 MOL      0.217898
    129 O19        -7.8680   -0.2860   -1.3140 o         1 MOL     -0.423563
    130 C41        -8.5060   -3.0250    0.5070 c3        1 MOL      0.304813
    131 C42        -8.8600   -4.4600    0.2800 c3        1 MOL     -0.595128
    132 O20        -8.2310   -2.8280    1.9050 oh        1 MOL     -0.624174
    133 H60        -5.9430   -3.7720    0.8160 hn        1 MOL      0.298565
    134 H61        -7.5190   -2.7790   -1.3090 h1        1 MOL      0.139978
    135 H62        -9.3980   -2.4200    0.3280 h1        1 MOL      0.062066
    136 H63        -9.0690   -2.8080    2.3810 ho        1 MOL      0.390035
    137 H64        -9.0190   -4.6010   -0.7830 hc        1 MOL      0.175090
    138 H65        -8.1200   -5.1370    0.7120 hc        1 MOL      0.175090
    139 H66        -9.8860   -4.4970    0.6540 hc        1 MOL      0.175090
    140 N12        -6.9510   -0.2280    0.6990 n         1 MOL     -0.141591
    141 C43        -7.1150    1.2660    0.8340 c3        1 MOL     -0.116083
    142 C44        -6.1270    1.9140   -0.2230 c         1 MOL      0.353695
    143 O21        -6.4320    2.9700   -0.7710 o         1 MOL     -0.501169
    144 C45        -6.7030    1.7200    2.2840 c3        1 MOL      0.059962
    145 C46        -7.7170    1.3490    3.3390 c3        1 MOL     -0.070389
    146 C47        -7.1650    1.6390    4.7660 c3        1 MOL      0.029589
    147 C48        -8.1770    1.1190    5.8250 c3        1 MOL      0.052993
    148 N13        -7.6070    1.0680    7.1430 n4        1 MOL     -0.203067
    149 H67        -6.7230   -0.8000    1.4990 hn        1 MOL      0.225508
    150 H68        -8.1520    1.5670    0.6920 h1        1 MOL      0.125216
    151 H69        -6.5800    2.8030    2.2150 hc        1 MOL      0.003775
    152 H70        -5.6980    1.3370    2.4620 hc        1 MOL      0.003775
    153 H71        -7.8780    0.2730    3.2980 hc        1 MOL      0.027921
    154 H72        -8.6140    1.9500    3.1890 hc        1 MOL      0.027921
    155 H73        -7.0010    2.7080    4.8810 hc        1 MOL      0.020373
    156 H74        -6.2140    1.1480    4.9990 hc        1 MOL      0.020373
    157 H75        -8.5130    0.1120    5.6050 hx        1 MOL      0.060341
    158 H76        -9.0380    1.7730    5.8820 hx        1 MOL      0.060341
    159 H77        -8.1890    0.5800    7.8050 hn        1 MOL      0.245449
    160 H78        -6.7410    0.5440    7.1040 hn        1 MOL      0.245449
    161 H79        -7.4240    1.9740    7.5570 hn        1 MOL      0.245449
    162 N14        -5.0380    1.2140   -0.5250 n         1 MOL      0.037314
    163 C49        -4.0700    1.5850   -1.5690 c3        1 MOL     -0.432706
    164 C50        -4.7040    1.4670   -2.9800 c         1 MOL      0.622158
    165 O22        -4.4680    2.3510   -3.7960 o         1 MOL     -0.593083
    166 C51        -2.7390    0.8460   -1.4430 c3        1 MOL      0.259109
    167 C52        -1.8970    1.4220   -0.3520 c3        1 MOL     -0.115350
    168 C53        -0.6220    0.6750   -0.0420 c         1 MOL      0.780864
    169 O23         0.3900    1.4080    0.2390 o         1 MOL     -0.792905
    170 O24        -0.5360   -0.5800   -0.0090 o         1 MOL     -0.792905
    171 H80        -4.9630    0.3150   -0.0600 hn        1 MOL      0.097245
    172 H81        -3.7810    2.6180   -1.3670 h1        1 MOL      0.153482
    173 H82        -2.1970    0.9590   -2.3800 hc        1 MOL     -0.024175
    174 H83        -2.8860   -0.2250   -1.2670 hc        1 MOL     -0.024175
    175 H84        -2.4000    1.5260    0.6160 hc        1 MOL     -0.002930
    176 H85        -1.6820    2.4570   -0.6000 hc        1 MOL     -0.002930
    177 N15        -5.4840    0.4900   -3.3070 n         1 MOL     -0.186288
    178 C54        -6.2470    0.4950   -4.5600 c3        1 MOL     -0.339326
    179 H86        -7.3110    0.5710   -4.3360 h1        1 MOL      0.128492
    180 H87        -5.9410    1.3460   -5.1680 h1        1 MOL      0.128492
    181 H88        -6.0560   -0.4290   -5.1060 h1        1 MOL      0.128492
    182 H89        -5.6460   -0.2150   -2.6100 hn        1 MOL      0.227694
    183 Ca1         1.8200   -0.5480    1.2080 Ca        1 MOL      1.808300
    184 O25         0.0500    0.0810    3.2570 oh        1 MOL     -0.900524
    185 H90        -0.8530    0.1720    3.5580 ho        1 MOL      0.404895
    186 H91         0.5350    0.7130    3.7790 ho        1 MOL      0.404895
@<TRIPOS>BOND
     1    1    2 1   
     2    1    4 1   
     3    1    5 1   
     4    1    6 1   
     5    2    3 2   
     6    2    7 1   
     7    7    8 1   
     8    7   15 1   
     9    8    9 1   
    10    8   11 1   
    11    8   16 1   
    12    9   10 2   
    13    9   19 1   
    14   11   12 1   
    15   11   17 1   
    16   11   18 1   
    17   12   13 1   
    18   12   14 1   
    19   19   20 1   
    20   19   28 1   
    21   20   21 1   
    22   20   23 1   
    23   20   29 1   
    24   21   22 2   
    25   21   41 1   
    26   23   24 1   
    27   23   30 1   
    28   23   31 1   
    29   24   25 1   
    30   24   32 1   
    31   24   33 1   
    32   25   26 1   
    33   25   34 1   
    34   25   35 1   
    35   26   27 1   
    36   26   36 1   
    37   26   37 1   
    38   27   38 1   
    39   27   39 1   
    40   27   40 1   
    41   41   42 1   
    42   41   49 1   
    43   42   43 1   
    44   42   45 1   
    45   42   50 1   
    46   43   44 2   
    47   43   53 1   
    48   45   46 1   
    49   45   51 1   
    50   45   52 1   
    51   46   47 1   
    52   46   48 1   
    53   53   54 1   
    54   53   57 1   
    55   54   55 1   
    56   54   58 1   
    57   54   59 1   
    58   55   56 2   
    59   55   60 1   
    60   60   61 1   
    61   60   68 1   
    62   61   62 1   
    63   61   64 1   
    64   61   69 1   
    65   62   63 2   
    66   62   72 1   
    67   64   65 1   
    68   64   70 1   
    69   64   71 1   
    70   65   66 1   
    71   65   67 1   
    72   72   73 1   
    73   72   76 1   
    74   73   74 1   
    75   73   77 1   
    76   73   78 1   
    77   74   75 2   
    78   74   79 1   
    79   79   80 1   
    80   79   86 1   
    81   80   81 1   
    82   80   83 1   
    83   80   87 1   
    84   81   82 2   
    85   81   93 1   
    86   83   84 1   
    87   83   85 1   
    88   83   88 1   
    89   84   90 1   
    90   84   91 1   
    91   84   92 1   
    92   85   89 1   
    93   93   94 1   
    94   93  101 1   
    95   94   95 1   
    96   94   97 1   
    97   94  102 1   
    98   95   96 2   
    99   95  112 1   
   100   97   98 1   
   101   97   99 1   
   102   97  103 1   
   103   98  100 1   
   104   98  104 1   
   105   98  105 1   
   106   99  106 1   
   107   99  107 1   
   108   99  108 1   
   109  100  109 1   
   110  100  110 1   
   111  100  111 1   
   112  112  113 1   
   113  112  119 1   
   114  113  114 1   
   115  113  116 1   
   116  113  120 1   
   117  114  115 2   
   118  114  126 1   
   119  116  117 1   
   120  116  118 1   
   121  116  121 1   
   122  117  123 1   
   123  117  124 1   
   124  117  125 1   
   125  118  122 1   
   126  126  127 1   
   127  126  133 1   
   128  127  128 1   
   129  127  130 1   
   130  127  134 1   
   131  128  129 2   
   132  128  140 1   
   133  130  131 1   
   134  130  132 1   
   135  130  135 1   
   136  131  137 1   
   137  131  138 1   
   138  131  139 1   
   139  132  136 1   
   140  140  141 1   
   141  140  149 1   
   142  141  142 1   
   143  141  144 1   
   144  141  150 1   
   145  142  143 2   
   146  142  162 1   
   147  144  145 1   
   148  144  151 1   
   149  144  152 1   
   150  145  146 1   
   151  145  153 1   
   152  145  154 1   
   153  146  147 1   
   154  146  155 1   
   155  146  156 1   
   156  147  148 1   
   157  147  157 1   
   158  147  158 1   
   159  148  159 1   
   160  148  160 1   
   161  148  161 1   
   162  162  163 1   
   163  162  171 1   
   164  163  164 1   
   165  163  166 1   
   166  163  172 1   
   167  164  165 2   
   168  164  177 1   
   169  166  167 1   
   170  166  173 1   
   171  166  174 1   
   172  167  168 1   
   173  167  175 1   
   174  167  176 1   
   175  168  169 1   
   176  168  170 1   
   177  177  178 1   
   178  177  182 1   
   179  178  179 1   
   180  178  180 1   
   181  178  181 1   
   182  184  185 1   
   183  184  186 1   
@<TRIPOS>SUBSTRUCTURE
     1 MOL         1 TEMP              0 ****  ****    0 ROOT
