@<TRIPOS>MOLECULE
MOL
  175   173     1     0     0
SMALL
resp


@<TRIPOS>ATOM
      1 C1          0.0070    4.1370    5.3110 c3        1 MOL     -0.441999
      2 C2         -0.6270    4.0310    3.9060 c         1 MOL      0.793763
      3 O1          0.0230    4.2010    2.9010 o         1 MOL     -0.601365
      4 H1          0.0830    3.1430    5.7510 hc        1 MOL      0.106214
      5 H2          1.0030    4.5730    5.2290 hc        1 MOL      0.106214
      6 H3         -0.6150    4.7670    5.9450 hc        1 MOL      0.106214
      7 N1         -1.9450    3.7960    3.7990 n         1 MOL     -0.773816
      8 C3         -2.6700    3.4090    2.5320 c3        1 MOL      0.494553
      9 C4         -3.0220    4.5730    1.6250 c         1 MOL      0.527651
     10 O2         -3.6930    5.4990    2.0720 o         1 MOL     -0.605299
     11 C5         -3.9770    2.6760    2.8530 c3        1 MOL     -0.363697
     12 C6         -4.3630    1.7380    1.7320 c         1 MOL      0.840976
     13 O3         -5.4190    1.1120    1.9090 o         1 MOL     -0.713766
     14 O4         -3.7020    1.5800    0.7220 o         1 MOL     -0.713766
     15 H4         -2.3920    3.6990    4.6980 hn        1 MOL      0.316999
     16 H5         -2.0280    2.7270    1.9730 h1        1 MOL     -0.026266
     17 H6         -4.7310    3.4400    3.0320 hc        1 MOL      0.064126
     18 H7         -3.9470    2.0410    3.7350 hc        1 MOL      0.064126
     19 N2         -2.6530    4.5320    0.3450 n         1 MOL     -0.512779
     20 C7         -2.9680    5.5890   -0.5750 c3        1 MOL      0.305786
     21 C8         -3.9110    5.0410   -1.7600 c         1 MOL      0.467513
     22 O5         -4.0950    5.7720   -2.6470 o         1 MOL     -0.540846
     23 C9         -1.6960    6.1710   -1.1810 c3        1 MOL     -0.214239
     24 H8         -1.9860    3.8350    0.0350 hn        1 MOL      0.302012
     25 H9         -3.4930    6.4400   -0.1470 h1        1 MOL      0.027213
     26 H10        -1.1130    5.4060   -1.6940 hc        1 MOL      0.047141
     27 H11        -2.0340    7.0300   -1.7640 hc        1 MOL      0.047141
     28 H12        -0.9640    6.6290   -0.5240 hc        1 MOL      0.047141
     29 N3         -4.4390    3.7600   -1.7510 n         1 MOL     -0.482552
     30 C10        -5.1200    3.1080   -2.9460 c3        1 MOL      0.247708
     31 C11        -6.2980    2.2790   -2.5870 c         1 MOL      0.368048
     32 O6         -7.2220    2.1570   -3.3670 o         1 MOL     -0.543486
     33 C12        -4.1010    2.2760   -3.6410 c3        1 MOL     -0.009087
     34 C13        -3.3120    1.3570   -2.7320 c         1 MOL      0.666805
     35 O7         -3.8980    0.5670   -1.9630 o         1 MOL     -0.721750
     36 O8         -2.0750    1.4090   -2.6970 o         1 MOL     -0.721750
     37 H13        -4.3230    3.2910   -0.8640 hn        1 MOL      0.195106
     38 H14        -5.4530    3.7600   -3.7570 h1        1 MOL      0.033425
     39 H15        -3.4780    2.8970   -4.2860 hc        1 MOL     -0.002965
     40 H16        -4.6600    1.6720   -4.3570 hc        1 MOL     -0.002965
     41 N4         -6.3020    1.7440   -1.3620 n         1 MOL     -0.262964
     42 C14        -7.3200    0.7870   -0.8760 c3        1 MOL     -0.185218
     43 C15        -7.1650   -0.6200   -1.5070 c         1 MOL      0.538563
     44 O9         -8.1410   -1.3330   -1.4870 o         1 MOL     -0.628140
     45 H17        -5.3830    1.7070   -0.9590 hn        1 MOL      0.166507
     46 H18        -8.3350    1.0450   -1.1750 h1        1 MOL      0.122357
     47 H19        -7.3360    0.6610    0.2070 h1        1 MOL      0.122357
     48 N5         -6.0370   -1.0990   -1.9390 n         1 MOL     -0.220661
     49 C16        -5.8490   -2.4950   -2.4570 c3        1 MOL     -0.152245
     50 C17        -5.8760   -3.5710   -1.3880 c         1 MOL      0.554160
     51 O10        -6.0740   -4.7620   -1.7270 o         1 MOL     -0.568288
     52 C18        -4.6320   -2.6360   -3.3410 c3        1 MOL     -0.149031
     53 C19        -3.2800   -2.3690   -2.6070 c         1 MOL      0.415303
     54 N6         -2.1920   -2.2760   -3.3320 n         1 MOL     -0.588267
     55 O11        -3.1720   -2.1440   -1.3920 o         1 MOL     -0.268200
     56 H20        -5.1730   -0.5720   -1.8940 hn        1 MOL      0.251906
     57 H21        -6.7430   -2.7710   -3.0230 h1        1 MOL      0.135310
     58 H22        -4.6700   -1.8000   -4.0430 hc        1 MOL      0.066686
     59 H23        -4.6290   -3.5620   -3.9210 hc        1 MOL      0.066686
     60 H24        -2.2000   -2.4920   -4.3220 hn        1 MOL      0.316616
     61 H25        -1.3460   -2.1110   -2.8070 hn        1 MOL      0.316616
     62 N7         -5.9350   -3.2170   -0.0730 n         1 MOL     -0.283529
     63 C20        -6.0040   -4.2100    1.0680 c3        1 MOL     -0.185387
     64 C21        -4.7060   -4.6020    1.7540 c         1 MOL      0.486528
     65 O12        -4.6780   -5.5360    2.6120 o         1 MOL     -0.584086
     66 H26        -5.8140   -2.2530    0.2000 hn        1 MOL      0.251133
     67 H27        -6.5100   -5.0970    0.6790 h1        1 MOL      0.112717
     68 H28        -6.6320   -3.7840    1.8450 h1        1 MOL      0.112717
     69 N8         -3.6080   -3.9270    1.4290 n         1 MOL     -0.031732
     70 C22        -2.2880   -4.3290    1.6710 c3        1 MOL     -0.361078
     71 C23        -1.2700   -3.1840    1.6380 c         1 MOL      0.564090
     72 O13        -1.3810   -2.2390    0.8860 o         1 MOL     -0.452991
     73 C24        -1.7170   -5.3160    0.6710 c3        1 MOL      0.589567
     74 C25        -2.2160   -6.7700    0.7450 c3        1 MOL     -0.477884
     75 O14        -1.8030   -4.7870   -0.6650 oh        1 MOL     -0.618843
     76 H29        -3.7440   -3.2180    0.7120 hn        1 MOL      0.027330
     77 H30        -2.3710   -4.7010    2.6870 h1        1 MOL      0.106073
     78 H31        -0.6690   -5.4610    0.9010 h1        1 MOL     -0.040058
     79 H32        -1.8030   -3.8320   -0.6780 ho        1 MOL      0.287854
     80 H33        -2.2290   -7.2470    1.7210 hc        1 MOL      0.120160
     81 H34        -3.2500   -6.6470    0.4210 hc        1 MOL      0.120160
     82 H35        -1.6260   -7.4540    0.1290 hc        1 MOL      0.120160
     83 N9         -0.2290   -3.3180    2.4380 n         1 MOL     -0.428286
     84 C26         0.9000   -2.4270    2.3040 c3        1 MOL     -0.002594
     85 C27         1.6960   -2.8400    1.0520 c         1 MOL      0.496846
     86 O15         2.2560   -3.9290    0.9440 o         1 MOL     -0.580982
     87 C28         1.7770   -2.4210    3.6310 c3        1 MOL      0.105790
     88 C29         1.0260   -1.8890    4.8500 c3        1 MOL      0.163055
     89 C30         3.0790   -1.6470    3.4910 c3        1 MOL      0.040306
     90 C31         1.7470   -2.2360    6.1260 c3        1 MOL     -0.228244
     91 H36        -0.0990   -4.1100    3.0560 hn        1 MOL      0.280911
     92 H37         0.5060   -1.4210    2.1510 h1        1 MOL     -0.067575
     93 H38         2.0200   -3.4770    3.7510 hc        1 MOL     -0.021538
     94 H39         0.0240   -2.3130    4.8650 hc        1 MOL     -0.029358
     95 H40         0.9040   -0.8240    4.6510 hc        1 MOL     -0.029358
     96 H41         3.6610   -2.0390    2.6610 hc        1 MOL     -0.018760
     97 H42         2.9400   -0.5810    3.3150 hc        1 MOL     -0.018760
     98 H43         3.7000   -1.8300    4.3660 hc        1 MOL     -0.018760
     99 H44         1.9390   -3.2940    6.2970 hc        1 MOL      0.042531
    100 H45         2.6320   -1.6160    6.1480 hc        1 MOL      0.042531
    101 H46         1.0760   -1.9040    6.9180 hc        1 MOL      0.042531
    102 N10         1.8800   -1.9060    0.1240 n         1 MOL     -0.076932
    103 C32         2.7730   -1.8650   -1.0120 c3        1 MOL      0.052163
    104 C33         4.2140   -1.3960   -0.6710 c         1 MOL      0.400449
    105 O16         4.4960   -0.8710    0.4070 o         1 MOL     -0.289656
    106 C34         2.2000   -0.8960   -2.1230 c3        1 MOL     -0.135802
    107 C35         0.7790   -1.1470   -2.5550 c         1 MOL      0.687372
    108 O17        -0.1290   -0.9850   -1.7230 o         1 MOL     -0.653452
    109 O18         0.5170   -1.4930   -3.7310 o         1 MOL     -0.653452
    110 H47         1.2010   -1.1570    0.1920 hn        1 MOL     -0.072422
    111 H48         2.8380   -2.8620   -1.4440 h1        1 MOL      0.061615
    112 H49         2.7900   -0.9560   -3.0310 hc        1 MOL      0.021150
    113 H50         2.2900    0.1210   -1.7340 hc        1 MOL      0.021150
    114 N11         5.1790   -1.6230   -1.6080 n         1 MOL     -0.655283
    115 C36         6.5730   -1.2430   -1.4500 c3        1 MOL      0.501559
    116 C37         6.7690    0.1790   -1.0510 c         1 MOL      0.271836
    117 O19         7.3720    0.3830   -0.0020 o         1 MOL     -0.469010
    118 C38         7.3840   -1.6070   -2.6840 c3        1 MOL     -0.287473
    119 C39         8.8450   -1.5810   -2.4420 ca        1 MOL      0.160378
    120 C40         9.4460   -2.3830   -1.4510 ca        1 MOL     -0.220640
    121 C41         9.6560   -0.7040   -3.2320 ca        1 MOL     -0.220640
    122 C42        10.8100   -2.5030   -1.2670 ca        1 MOL     -0.051433
    123 C43        11.0100   -0.7740   -2.9960 ca        1 MOL     -0.051433
    124 C44        11.5670   -1.6440   -2.0080 ca        1 MOL     -0.154892
    125 H51         4.9210   -2.1840   -2.4000 hn        1 MOL      0.334440
    126 H52         6.9860   -1.8180   -0.6180 h1        1 MOL      0.006031
    127 H53         7.2110   -0.9970   -3.5750 hc        1 MOL      0.064946
    128 H54         7.1510   -2.6510   -2.8960 hc        1 MOL      0.064946
    129 H55         8.8650   -3.0770   -0.8670 ha        1 MOL      0.138656
    130 H56         9.2710   -0.0790   -4.0270 ha        1 MOL      0.138656
    131 H57        11.1880   -3.2510   -0.5780 ha        1 MOL      0.097096
    132 H58        11.6430   -0.2430   -3.7020 ha        1 MOL      0.097096
    133 H59        12.6450   -1.6260   -1.8600 ha        1 MOL      0.094469
    134 N12         6.3140    1.1960   -1.8440 n         1 MOL     -0.103979
    135 C45         6.5170    2.5490   -1.3130 c3        1 MOL     -0.010891
    136 C46         5.7140    2.8360    0.0190 c         1 MOL      0.306989
    137 O20         6.0910    3.7940    0.6980 o         1 MOL     -0.503918
    138 C47         5.9110    3.4040   -2.4080 c3        1 MOL      0.085528
    139 C48         5.6610    2.5440   -3.6240 c3        1 MOL     -0.153379
    140 C49         5.5150    1.1490   -3.1010 c3        1 MOL     -0.157385
    141 H60         7.5820    2.7320   -1.1370 h1        1 MOL      0.093241
    142 H61         4.9930    3.9410   -2.1750 hc        1 MOL      0.017586
    143 H62         6.5850    4.2250   -2.6420 hc        1 MOL      0.017586
    144 H63         4.6970    2.8660   -4.0020 hc        1 MOL      0.055050
    145 H64         6.4020    2.6380   -4.4260 hc        1 MOL      0.055050
    146 H65         4.4550    1.1360   -2.8370 h1        1 MOL      0.129825
    147 H66         5.7880    0.3650   -3.8020 h1        1 MOL      0.129825
    148 N13         4.7270    2.0110    0.4250 n         1 MOL     -0.067262
    149 C50         4.0050    2.2810    1.6600 c3        1 MOL     -0.138958
    150 C51         4.7070    1.6060    2.8820 c         1 MOL      0.467230
    151 O21         4.6860    2.0630    3.9990 o         1 MOL     -0.566045
    152 C52         2.5720    1.7690    1.5390 c3        1 MOL      0.068046
    153 C53         1.6190    2.3810    0.5380 c3        1 MOL     -0.348272
    154 C54         0.2580    1.7770    0.7500 c         1 MOL      0.627153
    155 O22         0.1750    0.6920    1.3530 o         1 MOL     -0.620839
    156 O23        -0.7240    2.2730    0.2190 o         1 MOL     -0.620839
    157 H67         4.5460    1.1340   -0.0470 hn        1 MOL     -0.014153
    158 H68         3.9660    3.3450    1.8610 h1        1 MOL      0.116073
    159 H69         2.1720    1.8270    2.5560 hc        1 MOL      0.078556
    160 H70         2.6680    0.7220    1.2470 hc        1 MOL      0.078556
    161 H71         1.8920    2.1660   -0.4880 hc        1 MOL      0.133910
    162 H72         1.5770    3.4580    0.7360 hc        1 MOL      0.133910
    163 N14         5.4290    0.4830    2.6320 n         1 MOL     -0.026816
    164 C55         6.3710   -0.1580    3.4850 c3        1 MOL     -0.100025
    165 H73         5.9440   -1.0870    3.8640 h1        1 MOL      0.039977
    166 H74         7.2790   -0.3800    2.9230 h1        1 MOL      0.039977
    167 H75         6.6120    0.4990    4.3200 h1        1 MOL      0.039977
    168 H76         5.1990   -0.0180    1.7790 hn        1 MOL      0.064537
    169 Ca1        -1.9170    0.0200   -0.2490 Ca        1 MOL      1.637173
    170 O24        -1.7780    0.0640    2.9560 oh        1 MOL     -0.729374
    171 H77        -1.8140    0.3640    3.8560 ho        1 MOL      0.346885
    172 H78        -0.8990    0.3010    2.6530 ho        1 MOL      0.346885
    173 O25        -4.1490   -1.1040    1.2240 oh        1 MOL     -0.729374
    174 H79        -3.8200   -1.1430    2.1220 ho        1 MOL      0.346885
    175 H80        -4.7100   -0.3270    1.2040 ho        1 MOL      0.346885
@<TRIPOS>BOND
     1    1    2 1   
     2    1    4 1   
     3    1    5 1   
     4    1    6 1   
     5    2    3 2   
     6    2    7 1   
     7    7    8 1   
     8    7   15 1   
     9    8    9 1   
    10    8   11 1   
    11    8   16 1   
    12    9   10 2   
    13    9   19 1   
    14   11   12 1   
    15   11   17 1   
    16   11   18 1   
    17   12   13 1   
    18   12   14 1   
    19   19   20 1   
    20   19   24 1   
    21   20   21 1   
    22   20   23 1   
    23   20   25 1   
    24   21   22 2   
    25   21   29 1   
    26   23   26 1   
    27   23   27 1   
    28   23   28 1   
    29   29   30 1   
    30   29   37 1   
    31   30   31 1   
    32   30   33 1   
    33   30   38 1   
    34   31   32 2   
    35   31   41 1   
    36   33   34 1   
    37   33   39 1   
    38   33   40 1   
    39   34   35 1   
    40   34   36 1   
    41   41   42 1   
    42   41   45 1   
    43   42   43 1   
    44   42   46 1   
    45   42   47 1   
    46   43   44 2   
    47   43   48 1   
    48   48   49 1   
    49   48   56 1   
    50   49   50 1   
    51   49   52 1   
    52   49   57 1   
    53   50   51 2   
    54   50   62 1   
    55   52   53 1   
    56   52   58 1   
    57   52   59 1   
    58   53   54 1   
    59   53   55 2   
    60   54   60 1   
    61   54   61 1   
    62   62   63 1   
    63   62   66 1   
    64   63   64 1   
    65   63   67 1   
    66   63   68 1   
    67   64   65 2   
    68   64   69 1   
    69   69   70 1   
    70   69   76 1   
    71   70   71 1   
    72   70   73 1   
    73   70   77 1   
    74   71   72 2   
    75   71   83 1   
    76   73   74 1   
    77   73   75 1   
    78   73   78 1   
    79   74   80 1   
    80   74   81 1   
    81   74   82 1   
    82   75   79 1   
    83   83   84 1   
    84   83   91 1   
    85   84   85 1   
    86   84   87 1   
    87   84   92 1   
    88   85   86 2   
    89   85  102 1   
    90   87   88 1   
    91   87   89 1   
    92   87   93 1   
    93   88   90 1   
    94   88   94 1   
    95   88   95 1   
    96   89   96 1   
    97   89   97 1   
    98   89   98 1   
    99   90   99 1   
   100   90  100 1   
   101   90  101 1   
   102  102  103 1   
   103  102  110 1   
   104  103  104 1   
   105  103  106 1   
   106  103  111 1   
   107  104  105 2   
   108  104  114 1   
   109  106  107 1   
   110  106  112 1   
   111  106  113 1   
   112  107  108 1   
   113  107  109 1   
   114  114  115 1   
   115  114  125 1   
   116  115  116 1   
   117  115  118 1   
   118  115  126 1   
   119  116  117 2   
   120  116  134 1   
   121  118  119 1   
   122  118  127 1   
   123  118  128 1   
   124  119  120 ar  
   125  119  121 ar  
   126  120  122 ar  
   127  120  129 1   
   128  121  123 ar  
   129  121  130 1   
   130  122  124 ar  
   131  122  131 1   
   132  123  124 ar  
   133  123  132 1   
   134  124  133 1   
   135  134  135 1   
   136  134  140 1   
   137  135  136 1   
   138  135  138 1   
   139  135  141 1   
   140  136  137 2   
   141  136  148 1   
   142  138  139 1   
   143  138  142 1   
   144  138  143 1   
   145  139  140 1   
   146  139  144 1   
   147  139  145 1   
   148  140  146 1   
   149  140  147 1   
   150  148  149 1   
   151  148  157 1   
   152  149  150 1   
   153  149  152 1   
   154  149  158 1   
   155  150  151 2   
   156  150  163 1   
   157  152  153 1   
   158  152  159 1   
   159  152  160 1   
   160  153  154 1   
   161  153  161 1   
   162  153  162 1   
   163  154  155 1   
   164  154  156 1   
   165  163  164 1   
   166  163  168 1   
   167  164  165 1   
   168  164  166 1   
   169  164  167 1   
   170  170  171 1   
   171  170  172 1   
   172  173  174 1   
   173  173  175 1   
@<TRIPOS>SUBSTRUCTURE
     1 MOL         1 TEMP              0 ****  ****    0 ROOT
