@<TRIPOS>MOLECULE
MOL
  172   171     1     0     0
SMALL
resp


@<TRIPOS>ATOM
      1 C1          0.4690    4.1340    5.4240 c3        1 MOL     -0.407557
      2 C2         -0.2230    3.9140    4.0760 c         1 MOL      0.892820
      3 O1          0.4420    3.8720    3.1100 o         1 MOL     -0.604213
      4 H1         -0.0740    4.8910    5.9910 hc        1 MOL      0.094417
      5 H2          0.4790    3.1990    5.9850 hc        1 MOL      0.094417
      6 H3          1.4930    4.4690    5.2570 hc        1 MOL      0.094417
      7 N1         -1.5660    3.7600    4.0030 n         1 MOL     -0.874532
      8 C3         -2.2190    3.5830    2.7210 c3        1 MOL      0.428815
      9 C4         -2.3800    4.7370    1.8460 c         1 MOL      0.418125
     10 O2         -2.6860    5.8140    2.3070 o         1 MOL     -0.558408
     11 C5         -3.5340    2.8660    2.8850 c3        1 MOL     -0.117553
     12 C6         -4.1810    2.4670    1.5750 c         1 MOL      0.681805
     13 O3         -5.0470    3.2400    1.1210 o         1 MOL     -0.657372
     14 O4         -3.7380    1.4760    0.9110 o         1 MOL     -0.657372
     15 H4         -2.1640    3.9210    4.7960 hn        1 MOL      0.358165
     16 H5         -1.5760    2.9070    2.1660 h1        1 MOL      0.057233
     17 H6         -4.2310    3.4240    3.5200 hc        1 MOL     -0.015894
     18 H7         -3.3890    1.8940    3.3550 hc        1 MOL     -0.015894
     19 N2         -2.2810    4.4710    0.5160 n         1 MOL     -0.356195
     20 C7         -2.4260    5.3970   -0.5370 c3        1 MOL      0.401103
     21 C8         -3.2130    4.8990   -1.7320 c         1 MOL      0.367665
     22 O5         -3.0450    5.4510   -2.8000 o         1 MOL     -0.561422
     23 C9         -1.0020    5.8610   -0.9060 c3        1 MOL     -0.412174
     24 H8         -1.9470    3.5290    0.3640 hn        1 MOL      0.183349
     25 H9         -3.0080    6.2410   -0.1760 h1        1 MOL     -0.006273
     26 H10        -0.5400    5.1580   -1.6050 hc        1 MOL      0.096212
     27 H11        -0.9600    6.8450   -1.3710 hc        1 MOL      0.096212
     28 H12        -0.2820    5.8660   -0.0830 hc        1 MOL      0.096212
     29 N3         -3.9710    3.7980   -1.6480 n         1 MOL     -0.168101
     30 C10        -4.7220    3.3110   -2.8350 c3        1 MOL      0.041739
     31 C11        -6.0030    2.6030   -2.4990 c         1 MOL      0.288183
     32 O6         -6.9070    2.4590   -3.3510 o         1 MOL     -0.507567
     33 C12        -3.7640    2.3310   -3.6010 c3        1 MOL     -0.189679
     34 C13        -3.1230    1.2500   -2.7080 c         1 MOL      0.753176
     35 O7         -3.7890    0.6600   -1.8580 o         1 MOL     -0.725906
     36 O8         -1.9170    1.0970   -2.7320 o         1 MOL     -0.725906
     37 H13        -4.0750    3.4080   -0.7240 hn        1 MOL      0.070688
     38 H14        -5.0060    4.0630   -3.5700 h1        1 MOL      0.091316
     39 H15        -2.9940    2.9540   -4.0520 hc        1 MOL      0.051562
     40 H16        -4.3490    1.8150   -4.3620 hc        1 MOL      0.051562
     41 N4         -6.1390    2.1590   -1.2080 n         1 MOL     -0.030611
     42 C14        -7.3340    1.5500   -0.7380 c3        1 MOL     -0.178789
     43 C15        -7.5000    0.1620   -1.4210 c         1 MOL      0.382072
     44 O9         -8.5980   -0.2940   -1.6790 o         1 MOL     -0.553270
     45 H17        -5.3860    2.3670   -0.5790 hn        1 MOL      0.128903
     46 H18        -8.2510    2.1010   -0.9540 h1        1 MOL      0.099552
     47 H19        -7.2750    1.3920    0.3440 h1        1 MOL      0.099552
     48 N5         -6.3870   -0.6060   -1.6350 n         1 MOL     -0.020732
     49 C16        -6.4000   -2.0280   -2.0650 c3        1 MOL     -0.013677
     50 C17        -6.5520   -3.0760   -0.9890 c         1 MOL      0.454416
     51 O10        -6.8490   -4.2350   -1.2710 o         1 MOL     -0.515827
     52 C18        -5.1320   -2.3400   -2.9520 c3        1 MOL     -0.317614
     53 C19        -3.7940   -2.2770   -2.2510 c         1 MOL      0.746734
     54 N6         -2.7080   -2.4540   -2.9620 n         1 MOL     -0.673171
     55 O11        -3.6350   -2.0190   -1.0780 o         1 MOL     -0.584896
     56 H20        -5.4740   -0.2590   -1.3600 hn        1 MOL      0.048744
     57 H21        -7.3030   -2.1850   -2.6630 h1        1 MOL      0.107655
     58 H22        -5.1130   -1.6470   -3.7970 hc        1 MOL      0.092670
     59 H23        -5.2550   -3.3950   -3.2050 hc        1 MOL      0.092670
     60 H24        -2.7820   -2.5150   -3.9680 hn        1 MOL      0.308611
     61 H25        -1.7510   -2.2990   -2.6830 hn        1 MOL      0.308611
     62 N7         -6.4330   -2.7470    0.3260 n         1 MOL     -0.334491
     63 C20        -6.5440   -3.6500    1.4590 c3        1 MOL     -0.098615
     64 C21        -5.2240   -4.4410    1.6870 c         1 MOL      0.468954
     65 O12        -5.3340   -5.3900    2.4740 o         1 MOL     -0.581280
     66 H26        -6.1980   -1.7860    0.5350 hn        1 MOL      0.223238
     67 H27        -7.2890   -4.4170    1.2220 h1        1 MOL      0.098643
     68 H28        -6.8750   -3.2220    2.4080 h1        1 MOL      0.098643
     69 N8         -4.0710   -3.9890    1.1950 n         1 MOL     -0.074207
     70 C22        -2.7520   -4.5700    1.5220 c3        1 MOL     -0.311191
     71 C23        -1.6620   -3.4860    1.5400 c         1 MOL      0.459775
     72 O13        -1.8540   -2.4650    0.8990 o         1 MOL     -0.422764
     73 C24        -2.3120   -5.4800    0.2990 c3        1 MOL      0.505428
     74 C25        -3.0870   -6.7810    0.3030 c3        1 MOL     -0.342360
     75 O14        -2.4510   -4.9020   -0.9550 oh        1 MOL     -0.575507
     76 H29        -4.1890   -3.1170    0.6990 hn        1 MOL      0.096549
     77 H30        -2.8640   -5.0700    2.4830 h1        1 MOL      0.128107
     78 H31        -1.2950   -5.7710    0.5690 h1        1 MOL     -0.036178
     79 H32        -2.3890   -3.9550   -0.8180 ho        1 MOL      0.322308
     80 H33        -3.1060   -7.3080    1.2610 hc        1 MOL      0.079188
     81 H34        -4.1510   -6.6240    0.1390 hc        1 MOL      0.079188
     82 H35        -2.6970   -7.5520   -0.3570 hc        1 MOL      0.079188
     83 N9         -0.5930   -3.6530    2.3740 n         1 MOL     -0.374436
     84 C26         0.5660   -2.7350    2.3230 c3        1 MOL      0.001619
     85 C27         1.4420   -3.0710    1.0640 c         1 MOL      0.504560
     86 O15         1.6480   -4.2960    0.8520 o         1 MOL     -0.585714
     87 C28         1.3480   -2.7180    3.6620 c3        1 MOL      0.122079
     88 C29         0.4730   -2.2530    4.8180 c3        1 MOL      0.046799
     89 C30         2.7810   -2.0800    3.6680 c3        1 MOL     -0.193406
     90 C31         0.9710   -2.6540    6.1730 c3        1 MOL     -0.081447
     91 H36        -0.4500   -4.5100    2.8870 hn        1 MOL      0.276657
     92 H37         0.2150   -1.7150    2.1740 h1        1 MOL     -0.008525
     93 H38         1.4420   -3.8030    3.7700 hc        1 MOL     -0.020185
     94 H39        -0.5250   -2.6530    4.6850 hc        1 MOL     -0.010757
     95 H40         0.4360   -1.1610    4.8520 hc        1 MOL     -0.010757
     96 H41         2.7460   -1.0100    3.8810 hc        1 MOL      0.042792
     97 H42         3.4400   -2.5760    4.3880 hc        1 MOL      0.042792
     98 H43         3.2780   -2.1550    2.6970 hc        1 MOL      0.042792
     99 H44         1.8530   -2.0750    6.4580 hc        1 MOL      0.010267
    100 H45         0.2080   -2.4120    6.9160 hc        1 MOL      0.010267
    101 H46         1.2130   -3.7130    6.2410 hc        1 MOL      0.010267
    102 N10         1.8360   -1.9880    0.3820 n         1 MOL     -0.256228
    103 C32         2.6990   -1.9860   -0.8440 c3        1 MOL     -0.024345
    104 C33         4.1380   -1.5180   -0.6540 c         1 MOL      0.573122
    105 O16         4.3330   -0.6730    0.2360 o         1 MOL     -0.442677
    106 C34         1.9060   -1.1100   -1.9000 c3        1 MOL     -0.141697
    107 C35         0.6110   -1.7610   -2.3780 c         1 MOL      0.639190
    108 O17        -0.3700   -1.7210   -1.5930 o         1 MOL     -0.635316
    109 O18         0.5400   -2.0090   -3.5560 o         1 MOL     -0.635316
    110 H47         1.4390   -1.0890    0.6100 hn        1 MOL      0.222686
    111 H48         2.8040   -3.0370   -1.1130 h1        1 MOL      0.049353
    112 H49         2.5960   -0.9550   -2.7250 hc        1 MOL      0.044553
    113 H50         1.6580   -0.1480   -1.4400 hc        1 MOL      0.044553
    114 N11         5.1450   -1.9120   -1.4640 n         1 MOL     -0.639947
    115 C36         6.5550   -1.4450   -1.2390 c3        1 MOL      0.324581
    116 C37         6.7760    0.0430   -1.1730 c         1 MOL      0.362156
    117 O19         7.5480    0.4210   -0.3450 o         1 MOL     -0.513076
    118 C38         7.3750   -2.1460   -2.3160 c3        1 MOL     -0.222585
    119 C39         8.8440   -2.1580   -2.1040 ca        1 MOL      0.033814
    120 C40         9.6500   -1.2510   -2.7980 ca        1 MOL     -0.106270
    121 C41         9.4550   -2.9110   -1.0740 ca        1 MOL     -0.106270
    122 C42        11.0560   -1.1180   -2.5220 ca        1 MOL     -0.193656
    123 C43        10.8110   -2.7580   -0.7620 ca        1 MOL     -0.193656
    124 C44        11.6240   -1.7990   -1.4440 ca        1 MOL     -0.009317
    125 H51         4.9230   -2.5960   -2.1820 hn        1 MOL      0.316310
    126 H52         6.7870   -1.9240   -0.2870 h1        1 MOL      0.066023
    127 H53         7.3010   -1.6330   -3.2820 hc        1 MOL      0.078550
    128 H54         7.1510   -3.2010   -2.4370 hc        1 MOL      0.078550
    129 H55         9.2720   -0.5950   -3.5620 ha        1 MOL      0.113388
    130 H56         8.8980   -3.6450   -0.5030 ha        1 MOL      0.113388
    131 H57        11.5610   -0.3730   -3.1160 ha        1 MOL      0.123636
    132 H58        11.3660   -3.4000   -0.1070 ha        1 MOL      0.123636
    133 H59        12.6780   -1.7610   -1.2110 ha        1 MOL      0.078464
    134 N12         6.1390    0.9340   -1.9070 n         1 MOL     -0.019894
    135 C45         6.2930    2.3790   -1.7480 c3        1 MOL      0.011014
    136 C46         5.8060    2.8770   -0.4330 c         1 MOL      0.503378
    137 O20         6.4130    3.6850    0.2520 o         1 MOL     -0.535427
    138 C47         5.7180    3.0240   -3.0090 c3        1 MOL     -0.290209
    139 C48         4.6070    2.0530   -3.5260 c3        1 MOL      0.025525
    140 C49         5.2820    0.7150   -3.1310 c3        1 MOL      0.043864
    141 H60         7.3260    2.6790   -1.8410 h1        1 MOL      0.051093
    142 H61         5.1410    3.9230   -2.7840 hc        1 MOL      0.100417
    143 H62         6.5100    3.1210   -3.7510 hc        1 MOL      0.100417
    144 H63         3.6330    2.0950   -3.0350 hc        1 MOL      0.035527
    145 H64         4.4330    2.1240   -4.6000 hc        1 MOL      0.035527
    146 H65         4.5120   -0.0310   -2.9490 h1        1 MOL     -0.011691
    147 H66         5.9440    0.3490   -3.9160 h1        1 MOL     -0.011691
    148 N13         4.6760    2.2740   -0.0200 n         1 MOL     -0.204008
    149 C50         4.1400    2.5880    1.3320 c3        1 MOL     -0.459999
    150 C51         5.0730    2.0550    2.4490 c         1 MOL      0.636418
    151 O21         5.0410    2.5750    3.5480 o         1 MOL     -0.560878
    152 C52         2.6600    1.9430    1.4400 c3        1 MOL      0.272200
    153 C53         1.7400    2.1210    0.2250 c3        1 MOL     -0.075129
    154 C54         0.3830    1.4210    0.4860 c         1 MOL      0.548725
    155 O22        -0.5990    1.9900    0.1070 o         1 MOL     -0.617103
    156 O23         0.3560    0.2800    0.9000 o         1 MOL     -0.617103
    157 H67         4.3290    1.4160   -0.4160 hn        1 MOL      0.172894
    158 H68         3.9830    3.6560    1.4410 h1        1 MOL      0.184305
    159 H69         2.0740    2.3740    2.2630 hc        1 MOL     -0.024764
    160 H70         2.9060    0.9240    1.7380 hc        1 MOL     -0.024764
    161 H71         2.1850    1.6460   -0.6570 hc        1 MOL      0.026872
    162 H72         1.5590    3.1870    0.0460 hc        1 MOL      0.026872
    163 N14         5.7410    0.8540    2.1820 n         1 MOL     -0.179112
    164 C55         6.7340    0.2870    3.1770 c3        1 MOL     -0.300260
    165 H73         7.5420    1.0020    3.3320 h1        1 MOL      0.109935
    166 H74         6.2310    0.0960    4.1250 h1        1 MOL      0.109935
    167 H75         7.1450   -0.6450    2.7900 h1        1 MOL      0.109935
    168 H76         5.6620    0.4470    1.2620 hn        1 MOL      0.122527
    169 Ca1        -2.0960   -0.1130   -0.1790 Ca        1 MOL      1.681405
    170 O24        -1.8650    0.0260    2.4910 oh        1 MOL     -0.852105
    171 H77        -2.4550    0.0590    3.2430 ho        1 MOL      0.396351
    172 H78        -0.9980    0.1810    2.8500 ho        1 MOL      0.396351
@<TRIPOS>BOND
     1    1    2 1   
     2    1    4 1   
     3    1    5 1   
     4    1    6 1   
     5    2    3 2   
     6    2    7 1   
     7    7    8 1   
     8    7   15 1   
     9    8    9 1   
    10    8   11 1   
    11    8   16 1   
    12    9   10 2   
    13    9   19 1   
    14   11   12 1   
    15   11   17 1   
    16   11   18 1   
    17   12   13 1   
    18   12   14 1   
    19   19   20 1   
    20   19   24 1   
    21   20   21 1   
    22   20   23 1   
    23   20   25 1   
    24   21   22 2   
    25   21   29 1   
    26   23   26 1   
    27   23   27 1   
    28   23   28 1   
    29   29   30 1   
    30   29   37 1   
    31   30   31 1   
    32   30   33 1   
    33   30   38 1   
    34   31   32 2   
    35   31   41 1   
    36   33   34 1   
    37   33   39 1   
    38   33   40 1   
    39   34   35 1   
    40   34   36 1   
    41   41   42 1   
    42   41   45 1   
    43   42   43 1   
    44   42   46 1   
    45   42   47 1   
    46   43   44 2   
    47   43   48 1   
    48   48   49 1   
    49   48   56 1   
    50   49   50 1   
    51   49   52 1   
    52   49   57 1   
    53   50   51 2   
    54   50   62 1   
    55   52   53 1   
    56   52   58 1   
    57   52   59 1   
    58   53   54 1   
    59   53   55 2   
    60   54   60 1   
    61   54   61 1   
    62   62   63 1   
    63   62   66 1   
    64   63   64 1   
    65   63   67 1   
    66   63   68 1   
    67   64   65 2   
    68   64   69 1   
    69   69   70 1   
    70   69   76 1   
    71   70   71 1   
    72   70   73 1   
    73   70   77 1   
    74   71   72 2   
    75   71   83 1   
    76   73   74 1   
    77   73   75 1   
    78   73   78 1   
    79   74   80 1   
    80   74   81 1   
    81   74   82 1   
    82   75   79 1   
    83   83   84 1   
    84   83   91 1   
    85   84   85 1   
    86   84   87 1   
    87   84   92 1   
    88   85   86 2   
    89   85  102 1   
    90   87   88 1   
    91   87   89 1   
    92   87   93 1   
    93   88   90 1   
    94   88   94 1   
    95   88   95 1   
    96   89   96 1   
    97   89   97 1   
    98   89   98 1   
    99   90   99 1   
   100   90  100 1   
   101   90  101 1   
   102  102  103 1   
   103  102  110 1   
   104  103  104 1   
   105  103  106 1   
   106  103  111 1   
   107  104  105 2   
   108  104  114 1   
   109  106  107 1   
   110  106  112 1   
   111  106  113 1   
   112  107  108 1   
   113  107  109 1   
   114  114  115 1   
   115  114  125 1   
   116  115  116 1   
   117  115  118 1   
   118  115  126 1   
   119  116  117 2   
   120  116  134 1   
   121  118  119 1   
   122  118  127 1   
   123  118  128 1   
   124  119  120 ar  
   125  119  121 ar  
   126  120  122 ar  
   127  120  129 1   
   128  121  123 ar  
   129  121  130 1   
   130  122  124 ar  
   131  122  131 1   
   132  123  124 ar  
   133  123  132 1   
   134  124  133 1   
   135  134  135 1   
   136  134  140 1   
   137  135  136 1   
   138  135  138 1   
   139  135  141 1   
   140  136  137 2   
   141  136  148 1   
   142  138  139 1   
   143  138  142 1   
   144  138  143 1   
   145  139  140 1   
   146  139  144 1   
   147  139  145 1   
   148  140  146 1   
   149  140  147 1   
   150  148  149 1   
   151  148  157 1   
   152  149  150 1   
   153  149  152 1   
   154  149  158 1   
   155  150  151 2   
   156  150  163 1   
   157  152  153 1   
   158  152  159 1   
   159  152  160 1   
   160  153  154 1   
   161  153  161 1   
   162  153  162 1   
   163  154  155 1   
   164  154  156 1   
   165  163  164 1   
   166  163  168 1   
   167  164  165 1   
   168  164  166 1   
   169  164  167 1   
   170  170  171 1   
   171  170  172 1   
@<TRIPOS>SUBSTRUCTURE
     1 MOL         1 TEMP              0 ****  ****    0 ROOT
