@<TRIPOS>MOLECULE
MOL
  182   178     1     0     0
SMALL
resp


@<TRIPOS>ATOM
      1 C1          1.6370    2.7300    6.1170 c3        1 MOL     -0.288110
      2 C2          1.1650    2.6700    4.6560 c         1 MOL      0.745761
      3 O1          1.9870    2.7820    3.7660 o         1 MOL     -0.590504
      4 H1          2.4710    3.4260    6.2000 hc        1 MOL      0.071476
      5 H2          0.8170    3.0690    6.7500 hc        1 MOL      0.071476
      6 H3          1.9570    1.7390    6.4370 hc        1 MOL      0.071476
      7 N1         -0.1100    2.3570    4.4310 n         1 MOL     -0.603756
      8 C3         -0.7050    2.1110    3.1230 c3        1 MOL     -0.051438
      9 C4         -0.7840    3.3570    2.2260 c         1 MOL      0.645570
     10 O2         -1.5010    4.2760    2.5510 o         1 MOL     -0.573800
     11 C5         -2.0840    1.3360    3.2150 c3        1 MOL     -0.051610
     12 C6         -2.7020    1.0110    1.8280 c         1 MOL      0.670588
     13 O3         -2.0750    1.2490    0.7870 o         1 MOL     -0.721033
     14 O4         -3.8450    0.4990    1.8840 o         1 MOL     -0.721033
     15 H4         -0.8020    2.4530    5.1650 hn        1 MOL      0.337572
     16 H5         -0.1720    1.4220    2.4600 h1        1 MOL      0.094916
     17 H6         -2.7960    1.9250    3.8030 hc        1 MOL      0.013531
     18 H7         -1.8240    0.4130    3.7230 hc        1 MOL      0.013531
     19 N2         -0.0190    3.4440    1.1340 n         1 MOL     -0.130135
     20 C7          0.1920    4.7160    0.4750 c3        1 MOL     -0.351522
     21 C8         -1.0320    5.2500   -0.3470 c         1 MOL      0.601379
     22 O5         -1.3480    6.4480   -0.3050 o         1 MOL     -0.560547
     23 C9          1.5300    4.5530   -0.3760 c3        1 MOL      0.151558
     24 C10         2.1270    5.8620   -0.6620 c3        1 MOL     -0.005044
     25 C11         3.0160    5.6780   -1.9170 c3        1 MOL     -0.140433
     26 C12         4.0750    6.8470   -2.1030 c3        1 MOL      0.243184
     27 N3          4.8040    6.8150   -3.4040 n4        1 MOL     -0.513293
     28 H8          0.4590    2.6170    0.7820 hn        1 MOL      0.054645
     29 H9          0.4750    5.4570    1.2180 h1        1 MOL      0.128771
     30 H10         1.3170    3.8990   -1.2230 hc        1 MOL      0.044605
     31 H11         2.2910    4.0960    0.2410 hc        1 MOL      0.044605
     32 H12         2.6820    6.3090    0.1610 hc        1 MOL      0.028088
     33 H13         1.3470    6.5430   -1.0070 hc        1 MOL      0.028088
     34 H14         2.3560    5.5910   -2.7780 hc        1 MOL      0.025700
     35 H15         3.6110    4.7780   -1.7810 hc        1 MOL      0.025700
     36 H16         4.7270    6.8340   -1.2330 hx        1 MOL      0.039168
     37 H17         3.5710    7.8160   -2.0110 hx        1 MOL      0.039168
     38 H18         5.5580    7.4800   -3.4770 hn        1 MOL      0.360664
     39 H19         5.2570    5.9220   -3.4850 hn        1 MOL      0.360664
     40 H20         4.1810    6.9700   -4.1830 hn        1 MOL      0.360664
     41 N4         -1.7910    4.3200   -0.9490 n         1 MOL     -0.491536
     42 C13        -3.1060    4.6100   -1.6660 c3        1 MOL      0.042531
     43 C14        -4.4300    4.3240   -0.9170 c         1 MOL      0.454008
     44 O6         -5.5060    4.5780   -1.4830 o         1 MOL     -0.512898
     45 C15        -3.1130    4.0850   -3.0790 c3        1 MOL     -0.216209
     46 C16        -3.0520    2.5740   -3.2070 c         1 MOL      0.770131
     47 O7         -3.1800    2.0210   -4.2680 o         1 MOL     -0.707881
     48 O8         -2.5690    1.9610   -2.2160 o         1 MOL     -0.707881
     49 H21        -1.5140    3.3500   -0.9400 hn        1 MOL      0.306981
     50 H22        -3.1340    5.6900   -1.8130 h1        1 MOL      0.099507
     51 H23        -2.3110    4.5560   -3.6550 hc        1 MOL      0.058041
     52 H24        -3.9970    4.5080   -3.5570 hc        1 MOL      0.058041
     53 N5         -4.2750    3.8470    0.3180 n         1 MOL     -0.216709
     54 C17        -5.4350    3.5170    1.1690 c3        1 MOL     -0.285098
     55 C18        -6.3470    2.4950    0.5160 c         1 MOL      0.503210
     56 O9         -7.5440    2.4540    0.7210 o         1 MOL     -0.571488
     57 H25        -3.3600    3.5700    0.6450 hn        1 MOL      0.244816
     58 H26        -5.9940    4.4320    1.3550 h1        1 MOL      0.157503
     59 H27        -5.1340    3.0630    2.1150 h1        1 MOL      0.157503
     60 N6         -5.8530    1.4920   -0.1880 n         1 MOL     -0.031905
     61 C19        -6.6110    0.4480   -0.9220 c3        1 MOL     -0.182608
     62 C20        -7.0330   -0.6860    0.0530 c         1 MOL      0.466316
     63 O10        -7.9050   -1.5150   -0.1350 o         1 MOL     -0.573251
     64 C21        -5.7610   -0.0640   -2.1070 c3        1 MOL     -0.012515
     65 C22        -4.8750   -1.3210   -1.8570 c         1 MOL      0.478507
     66 N7         -5.3560   -2.5040   -2.0500 n         1 MOL     -0.714178
     67 O11        -3.7970   -1.2530   -1.3240 o         1 MOL     -0.525420
     68 H28        -4.8400    1.4590   -0.1760 hn        1 MOL      0.014687
     69 H29        -7.5020    0.9440   -1.3030 h1        1 MOL      0.148727
     70 H30        -5.1190    0.7610   -2.4100 hc        1 MOL      0.044968
     71 H31        -6.3640   -0.3610   -2.9580 hc        1 MOL      0.044968
     72 H32        -6.2620   -2.5860   -2.5030 hn        1 MOL      0.341967
     73 H33        -4.7640   -3.3180   -1.9700 hn        1 MOL      0.341967
     74 N8         -6.4110   -0.8250    1.1740 n         1 MOL     -0.133504
     75 C23        -6.6060   -1.9620    2.1310 c3        1 MOL     -0.231526
     76 C24        -5.3370   -2.7730    2.4760 c         1 MOL      0.604086
     77 O12        -5.4010   -3.5650    3.3850 o         1 MOL     -0.572017
     78 H34        -5.6850   -0.1710    1.4330 hn        1 MOL      0.214029
     79 H35        -7.3580   -2.6970    1.8450 h1        1 MOL      0.124145
     80 H36        -6.9130   -1.4340    3.0300 h1        1 MOL      0.124145
     81 N9         -4.2660   -2.6440    1.6920 n         1 MOL     -0.388685
     82 C25        -3.0010   -3.3890    1.7640 c3        1 MOL      0.013938
     83 C26        -1.6640   -2.7240    1.3380 c         1 MOL      0.819598
     84 O13        -1.5760   -1.9290    0.4010 o         1 MOL     -0.709010
     85 C27        -3.1760   -4.8140    1.1220 c3        1 MOL     -0.116593
     86 C28        -3.3000   -4.9880   -0.3530 ca        1 MOL      0.026416
     87 C29        -2.0940   -4.9330   -1.0370 ca        1 MOL     -0.079296
     88 C30        -4.4970   -5.4060   -1.0070 ca        1 MOL     -0.079296
     89 C31        -2.0530   -5.3140   -2.4110 ca        1 MOL     -0.333716
     90 C32        -4.4360   -5.8130   -2.3680 ca        1 MOL     -0.333716
     91 C33        -3.2130   -5.8660   -3.0850 ca        1 MOL      0.412921
     92 O14        -3.2200   -6.1050   -4.3950 oh        1 MOL     -0.555164
     93 H37        -4.3140   -1.9230    0.9960 hn        1 MOL      0.277105
     94 H38        -2.8650   -3.4730    2.8400 h1        1 MOL      0.054284
     95 H39        -4.0630   -5.2580    1.5850 hc        1 MOL      0.058476
     96 H40        -2.3460   -5.3720    1.5530 hc        1 MOL      0.058476
     97 H41        -1.2250   -4.4760   -0.5700 ha        1 MOL      0.142791
     98 H42        -5.4490   -5.4960   -0.5190 ha        1 MOL      0.142791
     99 H43        -1.1720   -5.1230   -3.0090 ha        1 MOL      0.143416
    100 H44        -5.3260   -6.2030   -2.8350 ha        1 MOL      0.143416
    101 H45        -4.0460   -6.2320   -4.8680 ho        1 MOL      0.420981
    102 N10        -0.6390   -3.2210    2.0540 n         1 MOL     -0.612654
    103 C34         0.7200   -2.6730    1.9500 c3        1 MOL      0.010801
    104 C35         1.6770   -3.6470    1.2120 c         1 MOL      0.435021
    105 O15         1.7970   -4.8040    1.5820 o         1 MOL     -0.541638
    106 C36         1.2790   -2.3740    3.3670 c3        1 MOL      0.280349
    107 C37         0.3750   -1.4490    4.2830 c3        1 MOL      0.045092
    108 C38         2.6070   -1.6350    3.1970 c3        1 MOL     -0.463552
    109 C39         0.6120   -1.8440    5.7810 c3        1 MOL     -0.155257
    110 H46        -0.8200   -3.8980    2.7810 hn        1 MOL      0.316185
    111 H47         0.6790   -1.6990    1.4620 h1        1 MOL      0.039739
    112 H48         1.5440   -3.2830    3.9010 hc        1 MOL     -0.008714
    113 H49        -0.6580   -1.7090    4.0480 hc        1 MOL      0.006862
    114 H50         0.5940   -0.3920    4.1550 hc        1 MOL      0.006862
    115 H51         2.5070   -0.6430    2.7430 hc        1 MOL      0.097628
    116 H52         3.0530   -1.6010    4.1840 hc        1 MOL      0.097628
    117 H53         3.3150   -2.1560    2.5580 hc        1 MOL      0.097628
    118 H54         1.6390   -1.7620    6.1050 hc        1 MOL      0.034271
    119 H55         0.1100   -1.0940    6.3920 hc        1 MOL      0.034271
    120 H56         0.1780   -2.8110    6.0510 hc        1 MOL      0.034271
    121 N11         2.4830   -3.1130    0.3510 n         1 MOL     -0.050644
    122 C40         3.4980   -3.7280   -0.4350 c3        1 MOL     -0.143136
    123 C41         4.9980   -3.3410   -0.0770 c         1 MOL      0.536906
    124 O16         5.1840   -2.4120    0.7410 o         1 MOL     -0.481378
    125 C42         3.2280   -3.4830   -1.9530 c3        1 MOL      0.012408
    126 O17         3.4300   -2.0510   -2.1610 oh        1 MOL     -0.561669
    127 H57         2.1750   -2.2020    0.0370 hn        1 MOL      0.186191
    128 H58         3.4330   -4.8070   -0.2730 h1        1 MOL      0.059347
    129 H59         2.2060   -3.7450   -2.2510 h1        1 MOL      0.079848
    130 H60         3.8550   -4.1660   -2.5340 h1        1 MOL      0.079848
    131 H61         2.6340   -1.6550   -1.8100 ho        1 MOL      0.336468
    132 N12         6.0350   -3.9130   -0.6490 n         1 MOL     -0.414116
    133 C43         7.4110   -3.5820   -0.2420 c3        1 MOL      0.033268
    134 C44         7.7860   -2.1970   -0.7070 c         1 MOL      0.507730
    135 O18         8.4100   -1.4740    0.0200 o         1 MOL     -0.503644
    136 C45         8.3860   -4.6050   -0.8270 c3        1 MOL     -0.285243
    137 H62         5.8290   -4.6770   -1.2670 hn        1 MOL      0.295163
    138 H63         7.5110   -3.6760    0.8390 h1        1 MOL      0.118693
    139 H64         8.1940   -4.5980   -1.9010 hc        1 MOL      0.090610
    140 H65         9.4100   -4.2630   -0.6610 hc        1 MOL      0.090610
    141 H66         8.3050   -5.6470   -0.5270 hc        1 MOL      0.090610
    142 N13         7.2630   -1.7250   -1.8410 n         1 MOL     -0.366138
    143 C46         7.6680   -0.3610   -2.3320 c3        1 MOL      0.029697
    144 C47         7.0960    0.7710   -1.4120 c         1 MOL      0.314195
    145 O19         7.7870    1.7240   -1.0700 o         1 MOL     -0.497239
    146 C48         7.4090   -0.2620   -3.8110 c3        1 MOL     -0.233774
    147 H67         6.7590   -2.3490   -2.4540 hn        1 MOL      0.265726
    148 H68         8.7450   -0.1880   -2.3330 h1        1 MOL      0.111743
    149 H69         7.5440    0.7190   -4.2860 hc        1 MOL      0.070923
    150 H70         8.0500   -0.9180   -4.3830 hc        1 MOL      0.070923
    151 H71         6.3870   -0.4970   -4.1010 hc        1 MOL      0.070923
    152 N14         5.8620    0.5960   -0.9580 n         1 MOL     -0.049632
    153 C49         5.2580    1.3370    0.1380 c3        1 MOL     -0.294952
    154 C50         5.9130    1.1380    1.5160 c         1 MOL      0.599318
    155 O20         5.9710    2.0880    2.2380 o         1 MOL     -0.601862
    156 C51         3.8520    0.9440    0.1940 c3        1 MOL      0.135675
    157 C52         3.0340    1.0860   -1.0650 c3        1 MOL     -0.245072
    158 C53         1.5800    0.6090   -0.8180 c         1 MOL      0.875282
    159 O21         1.3190   -0.5630   -1.2350 o         1 MOL     -0.693319
    160 O22         0.6730    1.1670   -0.1690 o         1 MOL     -0.693319
    161 H72         5.3520   -0.2290   -1.2690 hn        1 MOL      0.181657
    162 H73         5.4250    2.3850   -0.0600 h1        1 MOL      0.121788
    163 H74         3.4360    1.2840    1.1410 hc        1 MOL      0.032454
    164 H75         3.8140   -0.1080    0.4830 hc        1 MOL      0.032454
    165 H76         3.5450    0.6820   -1.9430 hc        1 MOL      0.002565
    166 H77         3.0360    2.1620   -1.2430 hc        1 MOL      0.002565
    167 N15         6.3060    0.0190    1.9480 n         1 MOL     -0.070741
    168 C54         7.0320   -0.1630    3.2100 c3        1 MOL     -0.351378
    169 H78         8.0980   -0.2630    3.0030 h1        1 MOL      0.131695
    170 H79         6.8660    0.7010    3.8530 h1        1 MOL      0.131695
    171 H80         6.6730   -1.0630    3.7090 h1        1 MOL      0.131695
    172 H81         6.2430   -0.7460    1.2960 hn        1 MOL      0.134830
    173 Ca1        -1.3810   -0.1100   -1.3570 Ca        1 MOL      1.746150
    174 O23        -0.8550   -2.6290   -2.2860 oh        1 MOL     -0.849486
    175 H82        -1.6880   -3.0700   -2.4300 ho        1 MOL      0.402614
    176 H83        -0.3770   -2.7410   -3.1030 ho        1 MOL      0.402614
    177 O24         0.1910    1.5170   -3.4570 oh        1 MOL     -0.849486
    178 H84         0.0730    1.2660   -4.3670 ho        1 MOL      0.402614
    179 H85         0.2030    2.4710   -3.4630 ho        1 MOL      0.402614
    180 O25        -2.4140   -0.6190   -3.7680 oh        1 MOL     -0.849486
    181 H86        -2.6860   -1.3290   -4.3520 ho        1 MOL      0.402614
    182 H87        -2.6030    0.1840   -4.2680 ho        1 MOL      0.402614
@<TRIPOS>BOND
     1    1    2 1   
     2    1    4 1   
     3    1    5 1   
     4    1    6 1   
     5    2    3 2   
     6    2    7 1   
     7    7    8 1   
     8    7   15 1   
     9    8    9 1   
    10    8   11 1   
    11    8   16 1   
    12    9   10 2   
    13    9   19 1   
    14   11   12 1   
    15   11   17 1   
    16   11   18 1   
    17   12   13 1   
    18   12   14 1   
    19   19   20 1   
    20   19   28 1   
    21   20   21 1   
    22   20   23 1   
    23   20   29 1   
    24   21   22 2   
    25   21   41 1   
    26   23   24 1   
    27   23   30 1   
    28   23   31 1   
    29   24   25 1   
    30   24   32 1   
    31   24   33 1   
    32   25   26 1   
    33   25   34 1   
    34   25   35 1   
    35   26   27 1   
    36   26   36 1   
    37   26   37 1   
    38   27   38 1   
    39   27   39 1   
    40   27   40 1   
    41   41   42 1   
    42   41   49 1   
    43   42   43 1   
    44   42   45 1   
    45   42   50 1   
    46   43   44 2   
    47   43   53 1   
    48   45   46 1   
    49   45   51 1   
    50   45   52 1   
    51   46   47 1   
    52   46   48 1   
    53   53   54 1   
    54   53   57 1   
    55   54   55 1   
    56   54   58 1   
    57   54   59 1   
    58   55   56 2   
    59   55   60 1   
    60   60   61 1   
    61   60   68 1   
    62   61   62 1   
    63   61   64 1   
    64   61   69 1   
    65   62   63 2   
    66   62   74 1   
    67   64   65 1   
    68   64   70 1   
    69   64   71 1   
    70   65   66 1   
    71   65   67 2   
    72   66   72 1   
    73   66   73 1   
    74   74   75 1   
    75   74   78 1   
    76   75   76 1   
    77   75   79 1   
    78   75   80 1   
    79   76   77 2   
    80   76   81 1   
    81   81   82 1   
    82   81   93 1   
    83   82   83 1   
    84   82   85 1   
    85   82   94 1   
    86   83   84 2   
    87   83  102 1   
    88   85   86 1   
    89   85   95 1   
    90   85   96 1   
    91   86   87 ar  
    92   86   88 ar  
    93   87   89 ar  
    94   87   97 1   
    95   88   90 ar  
    96   88   98 1   
    97   89   91 ar  
    98   89   99 1   
    99   90   91 ar  
   100   90  100 1   
   101   91   92 1   
   102   92  101 1   
   103  102  103 1   
   104  102  110 1   
   105  103  104 1   
   106  103  106 1   
   107  103  111 1   
   108  104  105 2   
   109  104  121 1   
   110  106  107 1   
   111  106  108 1   
   112  106  112 1   
   113  107  109 1   
   114  107  113 1   
   115  107  114 1   
   116  108  115 1   
   117  108  116 1   
   118  108  117 1   
   119  109  118 1   
   120  109  119 1   
   121  109  120 1   
   122  121  122 1   
   123  121  127 1   
   124  122  123 1   
   125  122  125 1   
   126  122  128 1   
   127  123  124 2   
   128  123  132 1   
   129  125  126 1   
   130  125  129 1   
   131  125  130 1   
   132  126  131 1   
   133  132  133 1   
   134  132  137 1   
   135  133  134 1   
   136  133  136 1   
   137  133  138 1   
   138  134  135 2   
   139  134  142 1   
   140  136  139 1   
   141  136  140 1   
   142  136  141 1   
   143  142  143 1   
   144  142  147 1   
   145  143  144 1   
   146  143  146 1   
   147  143  148 1   
   148  144  145 2   
   149  144  152 1   
   150  146  149 1   
   151  146  150 1   
   152  146  151 1   
   153  152  153 1   
   154  152  161 1   
   155  153  154 1   
   156  153  156 1   
   157  153  162 1   
   158  154  155 2   
   159  154  167 1   
   160  156  157 1   
   161  156  163 1   
   162  156  164 1   
   163  157  158 1   
   164  157  165 1   
   165  157  166 1   
   166  158  159 1   
   167  158  160 1   
   168  167  168 1   
   169  167  172 1   
   170  168  169 1   
   171  168  170 1   
   172  168  171 1   
   173  174  175 1   
   174  174  176 1   
   175  177  178 1   
   176  177  179 1   
   177  180  181 1   
   178  180  182 1   
@<TRIPOS>SUBSTRUCTURE
     1 MOL         1 TEMP              0 ****  ****    0 ROOT
