@<TRIPOS>MOLECULE
MOL
  189   185     1     0     0
SMALL
resp


@<TRIPOS>ATOM
      1 C1         -0.1180    1.8420    5.9020 c3        1 MOL     -0.282782
      2 C2         -0.5170    1.8050    4.4290 c         1 MOL      0.798641
      3 O1          0.2320    2.1550    3.5510 o         1 MOL     -0.648809
      4 H1          0.8010    2.4180    6.0150 hc        1 MOL      0.064017
      5 H2         -0.9130    2.3090    6.4830 hc        1 MOL      0.064017
      6 H3          0.0460    0.8250    6.2600 hc        1 MOL      0.064017
      7 N1         -1.8020    1.4830    4.1950 n         1 MOL     -0.730241
      8 C3         -2.3260    1.4630    2.8320 c3        1 MOL      0.309223
      9 C4         -2.5930    2.8870    2.4140 c         1 MOL      0.398937
     10 O2         -3.4530    3.6210    2.9020 o         1 MOL     -0.572547
     11 C5         -3.5910    0.5410    2.7840 c3        1 MOL     -0.106007
     12 C6         -3.9910    0.1550    1.4040 c         1 MOL      0.705276
     13 O3         -3.2130    0.4460    0.4360 o         1 MOL     -0.650609
     14 O4         -5.1110   -0.4050    1.3310 o         1 MOL     -0.650609
     15 H4         -2.4070    1.3100    4.9800 hn        1 MOL      0.343535
     16 H5         -1.5760    0.9730    2.2070 h1        1 MOL      0.016215
     17 H6         -4.3680    1.0170    3.3920 hc        1 MOL      0.021580
     18 H7         -3.4080   -0.3820    3.3490 hc        1 MOL      0.021580
     19 N2         -1.8230    3.3170    1.4380 n         1 MOL     -0.239772
     20 C7         -1.7490    4.7090    0.9130 c3        1 MOL     -0.053039
     21 C8         -2.7720    5.0420   -0.1390 c         1 MOL      0.568401
     22 O5         -3.0420    6.2450   -0.3320 o         1 MOL     -0.593466
     23 C9         -0.2820    5.0530    0.5980 c3        1 MOL      0.153246
     24 C10        -0.0880    6.5360    0.3390 c3        1 MOL     -0.048374
     25 C11        -0.4980    7.4850    1.5300 c3        1 MOL     -0.142212
     26 C12         0.2330    7.1090    2.8500 c3        1 MOL      0.100698
     27 N3         -0.2870    7.8740    4.0620 n4        1 MOL     -0.323711
     28 H8         -1.1180    2.6970    1.0860 hn        1 MOL      0.304359
     29 H9         -2.0510    5.3020    1.7860 h1        1 MOL      0.067512
     30 H10         0.2130    4.4510   -0.1700 hc        1 MOL     -0.011960
     31 H11         0.3560    4.7140    1.4110 hc        1 MOL     -0.011960
     32 H12        -0.5520    6.8190   -0.6050 hc        1 MOL      0.036558
     33 H13         0.9440    6.7010    0.0310 hc        1 MOL      0.036558
     34 H14        -1.5810    7.4660    1.6420 hc        1 MOL      0.058876
     35 H15        -0.1300    8.4690    1.2370 hc        1 MOL      0.058876
     36 H16         1.3130    7.1900    2.7150 hx        1 MOL      0.061082
     37 H17         0.0350    6.0700    3.1220 hx        1 MOL      0.061082
     38 H18         0.1080    7.5220    4.9260 hn        1 MOL      0.310208
     39 H19         0.0130    8.8440    4.0770 hn        1 MOL      0.310208
     40 H20        -1.2950    7.9400    4.0920 hn        1 MOL      0.310208
     41 N4         -3.3100    4.0480   -0.7960 n         1 MOL     -0.376398
     42 C13        -4.1540    4.2400   -1.9740 c3        1 MOL     -0.015434
     43 C14        -5.3800    3.2600   -1.9420 c         1 MOL      0.528606
     44 O6         -6.1440    3.2270   -2.8810 o         1 MOL     -0.478441
     45 C15        -3.2580    4.0120   -3.2810 c3        1 MOL     -0.299235
     46 C16        -2.3700    2.7450   -3.2870 c         1 MOL      0.928895
     47 O7         -1.4220    2.8080   -4.0830 o         1 MOL     -0.754521
     48 O8         -2.6690    1.7080   -2.6340 o         1 MOL     -0.754521
     49 H21        -2.8800    3.1510   -0.6150 hn        1 MOL      0.154883
     50 H22        -4.6310    5.2200   -1.9850 h1        1 MOL      0.114897
     51 H23        -2.5790    4.8670   -3.3410 hc        1 MOL      0.076493
     52 H24        -3.9810    3.8840   -4.0880 hc        1 MOL      0.076493
     53 N5         -5.6470    2.6170   -0.7730 n         1 MOL     -0.396903
     54 C17        -6.9220    2.0000   -0.3670 c3        1 MOL     -0.006884
     55 C18        -7.4220    0.8540   -1.3100 c         1 MOL      0.390943
     56 O9         -8.4740    0.9080   -1.9290 o         1 MOL     -0.530087
     57 H25        -4.8800    2.4860   -0.1250 hn        1 MOL      0.251372
     58 H26        -7.7360    2.7120   -0.2030 h1        1 MOL      0.059017
     59 H27        -6.7290    1.5530    0.6100 h1        1 MOL      0.059017
     60 N6         -6.5700   -0.1870   -1.3760 n         1 MOL     -0.035121
     61 C19        -6.8620   -1.5070   -2.0040 c3        1 MOL     -0.121249
     62 C20        -6.8820   -2.7360   -1.1010 c         1 MOL      0.452921
     63 O10        -7.2650   -3.7740   -1.5880 o         1 MOL     -0.521849
     64 C21        -5.8960   -1.7510   -3.1150 c3        1 MOL     -0.000553
     65 C22        -4.4270   -1.5840   -2.6840 c         1 MOL      0.651731
     66 O11        -4.0520   -1.8930   -1.5200 o         1 MOL     -0.696839
     67 O12        -3.6490   -1.0660   -3.4550 o         1 MOL     -0.696839
     68 H28        -5.7560   -0.1270   -0.7840 hn        1 MOL      0.001474
     69 H29        -7.8560   -1.6020   -2.4380 h1        1 MOL      0.112133
     70 H30        -6.0470   -1.0400   -3.9310 hc        1 MOL      0.021497
     71 H31        -6.0170   -2.7320   -3.5760 hc        1 MOL      0.021497
     72 N7         -6.6050   -2.5920    0.2040 n         1 MOL     -0.237766
     73 C23        -6.7040   -3.6360    1.2430 c3        1 MOL     -0.176957
     74 C24        -5.4290   -4.4870    1.2600 c         1 MOL      0.493504
     75 O13        -5.4500   -5.6690    1.7370 o         1 MOL     -0.556091
     76 H32        -6.2560   -1.6800    0.4600 hn        1 MOL      0.197146
     77 H33        -7.6430   -4.1680    1.0620 h1        1 MOL      0.108903
     78 H34        -6.6840   -3.1370    2.2050 h1        1 MOL      0.108903
     79 N8         -4.3180   -3.9170    0.8200 n         1 MOL     -0.196460
     80 C25        -3.0090   -4.5770    0.7320 c3        1 MOL     -0.325313
     81 C26        -1.8080   -3.5490    0.9090 c         1 MOL      0.729606
     82 O14        -1.8570   -2.3280    0.6260 o         1 MOL     -0.689007
     83 C27        -2.8650   -5.2760   -0.6040 c3        1 MOL      0.534086
     84 C28        -3.7350   -6.4900   -0.7580 c3        1 MOL     -0.611112
     85 O15        -3.2840   -4.4620   -1.6860 oh        1 MOL     -0.586720
     86 H35        -4.3940   -2.9240    0.6030 hn        1 MOL      0.253864
     87 H36        -2.8610   -5.3790    1.4630 h1        1 MOL      0.140325
     88 H37        -1.8250   -5.5360   -0.8050 h1        1 MOL     -0.036872
     89 H38        -3.6430   -3.6540   -1.3040 ho        1 MOL      0.358920
     90 H39        -3.4470   -7.0580   -1.6410 hc        1 MOL      0.160992
     91 H40        -3.5280   -6.9860    0.1910 hc        1 MOL      0.160992
     92 H41        -4.7980   -6.2400   -0.8660 hc        1 MOL      0.160992
     93 N9         -0.6490   -4.0690    1.3980 n         1 MOL     -0.648300
     94 C29         0.4520   -3.2110    1.6850 c3        1 MOL     -0.002911
     95 C30         1.7080   -3.6570    0.8540 c         1 MOL      0.583496
     96 O16         2.1360   -4.8440    0.9620 o         1 MOL     -0.565756
     97 C31         0.7510   -3.2660    3.1920 c3        1 MOL      0.224704
     98 C32        -0.4760   -3.1070    4.0880 c3        1 MOL      0.303849
     99 C33         1.7630   -2.1850    3.4220 c3        1 MOL     -0.538428
    100 C34        -0.1910   -3.3050    5.5950 c3        1 MOL     -0.411772
    101 H42        -0.6330   -5.0350    1.7080 hn        1 MOL      0.328157
    102 H43         0.3020   -2.1530    1.4610 h1        1 MOL      0.140159
    103 H44         1.2550   -4.2040    3.4090 hc        1 MOL     -0.032246
    104 H45        -1.1720   -3.8660    3.7410 hc        1 MOL     -0.060158
    105 H46        -0.9910   -2.1750    3.8820 hc        1 MOL     -0.060158
    106 H47         2.3880   -2.3770    4.2970 hc        1 MOL      0.108754
    107 H48         2.3880   -2.0280    2.5360 hc        1 MOL      0.108754
    108 H49         1.2810   -1.2140    3.5420 hc        1 MOL      0.108754
    109 H50         0.4840   -2.5550    6.0050 hc        1 MOL      0.095326
    110 H51        -1.2100   -3.3420    5.9740 hc        1 MOL      0.095326
    111 H52         0.2850   -4.2650    5.8260 hc        1 MOL      0.095326
    112 N10         2.2810   -2.7850    0.0180 n         1 MOL     -0.356081
    113 C35         3.4040   -2.9820   -0.8380 c3        1 MOL      0.028611
    114 C36         4.7480   -2.6920   -0.1740 c         1 MOL      0.334564
    115 O17         4.7870   -2.0150    0.8370 o         1 MOL     -0.327869
    116 C37         3.2170   -2.2680   -2.2340 c3        1 MOL      0.194265
    117 C38         2.0570   -2.6580   -3.1480 c3        1 MOL     -0.247064
    118 O18         3.1680   -0.9180   -2.0120 oh        1 MOL     -0.616962
    119 H53         1.9300   -1.8360   -0.0020 hn        1 MOL      0.340733
    120 H54         3.5130   -4.0530   -1.0310 h1        1 MOL      0.039742
    121 H55         4.1580   -2.4100   -2.7660 h1        1 MOL      0.000568
    122 H56         2.2800   -0.7360   -1.6680 ho        1 MOL      0.423903
    123 H57         1.1380   -2.6230   -2.5610 hc        1 MOL      0.075432
    124 H58         1.9880   -2.0660   -4.0640 hc        1 MOL      0.075432
    125 H59         2.2280   -3.6680   -3.4920 hc        1 MOL      0.075432
    126 N11         5.8960   -3.0770   -0.6980 n         1 MOL     -0.102626
    127 C39         7.1130   -2.9080    0.0650 c3        1 MOL     -0.393630
    128 C40         7.5960   -1.4750    0.1360 c         1 MOL      0.515221
    129 O19         8.0210   -1.0100    1.1880 o         1 MOL     -0.505105
    130 C41         8.3140   -3.7190   -0.4570 c3        1 MOL      0.394804
    131 C42         8.1410   -5.2070   -0.1790 c3        1 MOL     -0.470439
    132 O20         8.3880   -3.5150   -1.8130 oh        1 MOL     -0.666568
    133 H60         5.7550   -3.6520   -1.5150 hn        1 MOL      0.187110
    134 H61         6.9010   -3.2780    1.0710 h1        1 MOL      0.192024
    135 H62         9.2150   -3.3290    0.0060 h1        1 MOL      0.056397
    136 H63         8.5140   -4.4050   -2.1510 ho        1 MOL      0.429286
    137 H64         7.3660   -5.7100   -0.7570 hc        1 MOL      0.127313
    138 H65         9.0330   -5.6140   -0.6610 hc        1 MOL      0.127313
    139 H66         8.0330   -5.2990    0.9010 hc        1 MOL      0.127313
    140 N12         7.3230   -0.6720   -0.9060 n         1 MOL     -0.231873
    141 C43         7.4630    0.7880   -0.9080 c3        1 MOL     -0.116395
    142 C44         6.5110    1.4990    0.0720 c         1 MOL      0.354177
    143 O21         6.9680    2.3500    0.8450 o         1 MOL     -0.482708
    144 C45         7.3440    1.3220   -2.3090 c3        1 MOL      0.098971
    145 C46         7.6630    2.8080   -2.4480 c3        1 MOL      0.009318
    146 C47         8.0010    3.1260   -3.8440 c3        1 MOL      0.171564
    147 C48         6.8430    3.0150   -4.7960 c3        1 MOL     -0.020261
    148 N13         7.0780    3.7110   -6.0850 n4        1 MOL     -0.442289
    149 H67         6.9190   -1.0810   -1.7320 hn        1 MOL      0.224489
    150 H68         8.4740    1.0570   -0.5870 h1        1 MOL      0.119853
    151 H69         6.3530    1.2680   -2.7460 hc        1 MOL     -0.037925
    152 H70         7.9970    0.6860   -2.9070 hc        1 MOL     -0.037925
    153 H71         8.4810    3.1030   -1.8010 hc        1 MOL      0.012720
    154 H72         6.8070    3.3900   -2.1120 hc        1 MOL      0.012720
    155 H73         8.9030    2.6240   -4.1790 hc        1 MOL     -0.022211
    156 H74         8.2440    4.1850   -3.8490 hc        1 MOL     -0.022211
    157 H75         5.9200    3.3960   -4.3610 hx        1 MOL      0.107341
    158 H76         6.8670    1.9550   -5.0540 hx        1 MOL      0.107341
    159 H77         7.0270    4.7080   -5.9320 hn        1 MOL      0.350535
    160 H78         7.9080    3.4480   -6.6010 hn        1 MOL      0.350535
    161 H79         6.3430    3.4840   -6.7440 hn        1 MOL      0.350535
    162 N14         5.2740    1.1030    0.1290 n         1 MOL     -0.199679
    163 C49         4.2880    1.5980    1.1660 c3        1 MOL     -0.009615
    164 C50         4.7100    1.2470    2.6100 c         1 MOL      0.311827
    165 O22         4.7870    2.1410    3.4730 o         1 MOL     -0.536789
    166 C51         2.9500    0.9370    0.9570 c3        1 MOL      0.114432
    167 C52         2.0800    1.5890   -0.1070 c3        1 MOL     -0.223619
    168 C53         0.8080    0.7390   -0.3100 c         1 MOL      0.869520
    169 O23         0.9160   -0.3770   -0.7820 o         1 MOL     -0.823867
    170 O24        -0.3530    1.2220   -0.1530 o         1 MOL     -0.823867
    171 H80         5.0000    0.2810   -0.3900 hn        1 MOL      0.212032
    172 H81         4.1600    2.6800    1.1700 h1        1 MOL      0.080065
    173 H82         2.3850    0.9240    1.9000 hc        1 MOL     -0.001358
    174 H83         3.1260   -0.1000    0.6750 hc        1 MOL     -0.001358
    175 H84         2.6880    1.6970   -1.0090 hc        1 MOL      0.022190
    176 H85         1.7230    2.5270    0.3170 hc        1 MOL      0.022190
    177 N15         5.2400    0.0600    2.8410 n         1 MOL      0.097608
    178 C54         5.7290   -0.2650    4.2280 c3        1 MOL     -0.388326
    179 H86         6.2120   -1.2420    4.2230 h1        1 MOL      0.139432
    180 H87         6.4460    0.4910    4.5480 h1        1 MOL      0.139432
    181 H88         4.8840   -0.2810    4.9170 h1        1 MOL      0.139432
    182 H89         5.1490   -0.5990    2.0760 hn        1 MOL      0.022280
    183 Ca1        -1.8260   -0.4640   -1.4530 Ca        1 MOL      1.814086
    184 O25        -1.3080   -2.8970   -2.2800 oh        1 MOL     -0.871812
    185 H90        -1.0410   -3.1020   -3.1740 ho        1 MOL      0.397884
    186 H91        -1.9340   -3.5860   -2.0540 ho        1 MOL      0.397884
    187 O26        -0.4800    0.1290   -3.7740 oh        1 MOL     -0.871812
    188 H92         0.1900   -0.1170   -4.4180 ho        1 MOL      0.397884
    189 H93        -0.7990    0.9700   -4.0810 ho        1 MOL      0.397884
@<TRIPOS>BOND
     1    1    2 1   
     2    1    4 1   
     3    1    5 1   
     4    1    6 1   
     5    2    3 2   
     6    2    7 1   
     7    7    8 1   
     8    7   15 1   
     9    8    9 1   
    10    8   11 1   
    11    8   16 1   
    12    9   10 2   
    13    9   19 1   
    14   11   12 1   
    15   11   17 1   
    16   11   18 1   
    17   12   13 1   
    18   12   14 1   
    19   19   20 1   
    20   19   28 1   
    21   20   21 1   
    22   20   23 1   
    23   20   29 1   
    24   21   22 2   
    25   21   41 1   
    26   23   24 1   
    27   23   30 1   
    28   23   31 1   
    29   24   25 1   
    30   24   32 1   
    31   24   33 1   
    32   25   26 1   
    33   25   34 1   
    34   25   35 1   
    35   26   27 1   
    36   26   36 1   
    37   26   37 1   
    38   27   38 1   
    39   27   39 1   
    40   27   40 1   
    41   41   42 1   
    42   41   49 1   
    43   42   43 1   
    44   42   45 1   
    45   42   50 1   
    46   43   44 2   
    47   43   53 1   
    48   45   46 1   
    49   45   51 1   
    50   45   52 1   
    51   46   47 1   
    52   46   48 1   
    53   53   54 1   
    54   53   57 1   
    55   54   55 1   
    56   54   58 1   
    57   54   59 1   
    58   55   56 2   
    59   55   60 1   
    60   60   61 1   
    61   60   68 1   
    62   61   62 1   
    63   61   64 1   
    64   61   69 1   
    65   62   63 2   
    66   62   72 1   
    67   64   65 1   
    68   64   70 1   
    69   64   71 1   
    70   65   66 1   
    71   65   67 1   
    72   72   73 1   
    73   72   76 1   
    74   73   74 1   
    75   73   77 1   
    76   73   78 1   
    77   74   75 2   
    78   74   79 1   
    79   79   80 1   
    80   79   86 1   
    81   80   81 1   
    82   80   83 1   
    83   80   87 1   
    84   81   82 2   
    85   81   93 1   
    86   83   84 1   
    87   83   85 1   
    88   83   88 1   
    89   84   90 1   
    90   84   91 1   
    91   84   92 1   
    92   85   89 1   
    93   93   94 1   
    94   93  101 1   
    95   94   95 1   
    96   94   97 1   
    97   94  102 1   
    98   95   96 2   
    99   95  112 1   
   100   97   98 1   
   101   97   99 1   
   102   97  103 1   
   103   98  100 1   
   104   98  104 1   
   105   98  105 1   
   106   99  106 1   
   107   99  107 1   
   108   99  108 1   
   109  100  109 1   
   110  100  110 1   
   111  100  111 1   
   112  112  113 1   
   113  112  119 1   
   114  113  114 1   
   115  113  116 1   
   116  113  120 1   
   117  114  115 2   
   118  114  126 1   
   119  116  117 1   
   120  116  118 1   
   121  116  121 1   
   122  117  123 1   
   123  117  124 1   
   124  117  125 1   
   125  118  122 1   
   126  126  127 1   
   127  126  133 1   
   128  127  128 1   
   129  127  130 1   
   130  127  134 1   
   131  128  129 2   
   132  128  140 1   
   133  130  131 1   
   134  130  132 1   
   135  130  135 1   
   136  131  137 1   
   137  131  138 1   
   138  131  139 1   
   139  132  136 1   
   140  140  141 1   
   141  140  149 1   
   142  141  142 1   
   143  141  144 1   
   144  141  150 1   
   145  142  143 2   
   146  142  162 1   
   147  144  145 1   
   148  144  151 1   
   149  144  152 1   
   150  145  146 1   
   151  145  153 1   
   152  145  154 1   
   153  146  147 1   
   154  146  155 1   
   155  146  156 1   
   156  147  148 1   
   157  147  157 1   
   158  147  158 1   
   159  148  159 1   
   160  148  160 1   
   161  148  161 1   
   162  162  163 1   
   163  162  171 1   
   164  163  164 1   
   165  163  166 1   
   166  163  172 1   
   167  164  165 2   
   168  164  177 1   
   169  166  167 1   
   170  166  173 1   
   171  166  174 1   
   172  167  168 1   
   173  167  175 1   
   174  167  176 1   
   175  168  169 1   
   176  168  170 1   
   177  177  178 1   
   178  177  182 1   
   179  178  179 1   
   180  178  180 1   
   181  178  181 1   
   182  184  185 1   
   183  184  186 1   
   184  187  188 1   
   185  187  189 1   
@<TRIPOS>SUBSTRUCTURE
     1 MOL         1 TEMP              0 ****  ****    0 ROOT
