@<TRIPOS>MOLECULE
MOL
  179   176     1     0     0
SMALL
resp


@<TRIPOS>ATOM
      1 C1          1.3850    3.1280    6.9280 c3        1 MOL     -0.239573
      2 C2          1.5890    2.5350    5.5210 c         1 MOL      0.674017
      3 O1          2.7450    2.2870    5.0940 o         1 MOL     -0.540071
      4 H1          0.8850    2.3960    7.5610 hc        1 MOL      0.059832
      5 H2          2.3530    3.3820    7.3590 hc        1 MOL      0.059832
      6 H3          0.7710    4.0270    6.8580 hc        1 MOL      0.059832
      7 N1          0.4280    2.3080    4.8070 n         1 MOL     -0.605122
      8 C3          0.3370    2.2090    3.3460 c3        1 MOL      0.166257
      9 C4          0.5490    3.4930    2.6430 c         1 MOL      0.549742
     10 O2          0.5970    4.5350    3.3360 o         1 MOL     -0.543923
     11 C5         -1.1310    1.7390    3.0710 c3        1 MOL     -0.001348
     12 C6         -1.2540    1.4530    1.5370 c         1 MOL      0.659772
     13 O3         -2.3130    1.7240    0.9120 o         1 MOL     -0.732719
     14 O4         -0.2400    0.9190    1.0050 o         1 MOL     -0.732719
     15 H4         -0.4120    2.6790    5.2150 hn        1 MOL      0.299381
     16 H5          1.0710    1.5000    2.9520 h1        1 MOL      0.014674
     17 H6         -1.8450    2.5150    3.3550 hc        1 MOL      0.001182
     18 H7         -1.3310    0.9020    3.7370 hc        1 MOL      0.001182
     19 N2          0.9320    3.4560    1.3610 n         1 MOL     -0.398529
     20 C7          1.4850    4.6230    0.6490 c3        1 MOL     -0.214485
     21 C8          0.3300    5.4620    0.1080 c         1 MOL      0.482639
     22 O5          0.3960    6.6860    0.0470 o         1 MOL     -0.555064
     23 C9          2.5210    4.1810   -0.3850 c3        1 MOL      0.227872
     24 C10         3.1920    5.4050   -0.9530 c3        1 MOL     -0.360076
     25 C11         4.1860    4.8950   -2.0750 c3        1 MOL      0.106080
     26 C12         4.9920    5.9710   -2.8030 c3        1 MOL      0.052194
     27 N3          5.9570    5.4800   -3.8200 n4        1 MOL     -0.449580
     28 H8          0.7250    2.6320    0.8230 hn        1 MOL      0.284901
     29 H9          1.8580    5.3120    1.4070 h1        1 MOL      0.164110
     30 H10         2.0910    3.6880   -1.2540 hc        1 MOL      0.059771
     31 H11         3.2470    3.6050    0.1770 hc        1 MOL      0.059771
     32 H12         3.6690    6.0320   -0.1950 hc        1 MOL      0.103816
     33 H13         2.4040    5.9300   -1.4950 hc        1 MOL      0.103816
     34 H14         3.5280    4.4170   -2.7930 hc        1 MOL      0.010299
     35 H15         4.8220    4.1160   -1.6510 hc        1 MOL      0.010299
     36 H16         5.6410    6.4810   -2.0960 hx        1 MOL      0.080243
     37 H17         4.3550    6.6930   -3.2970 hx        1 MOL      0.080243
     38 H18         6.6210    6.2060   -4.0690 hn        1 MOL      0.348990
     39 H19         6.5190    4.7020   -3.5000 hn        1 MOL      0.348990
     40 H20         5.4240    5.2220   -4.6320 hn        1 MOL      0.348990
     41 N4         -0.8350    4.8960   -0.3410 n         1 MOL     -0.229558
     42 C13        -2.0190    5.5920   -0.9990 c3        1 MOL     -0.000755
     43 C14        -3.3540    5.3880   -0.2880 c         1 MOL      0.433200
     44 O6         -4.3110    6.1410   -0.4340 o         1 MOL     -0.533588
     45 C15        -2.1040    5.0900   -2.4420 c3        1 MOL     -0.225013
     46 C16        -2.2470    3.6170   -2.7270 c         1 MOL      0.786897
     47 O7         -2.7360    3.1980   -3.7930 o         1 MOL     -0.733933
     48 O8         -1.9200    2.8390   -1.8150 o         1 MOL     -0.733933
     49 H21        -0.8390    3.8840   -0.3460 hn        1 MOL      0.145491
     50 H22        -1.6900    6.6280   -1.0140 h1        1 MOL      0.120769
     51 H23        -1.2420    5.4960   -2.9770 hc        1 MOL      0.067741
     52 H24        -2.9910    5.4960   -2.9320 hc        1 MOL      0.067741
     53 N5         -3.5280    4.3140    0.5580 n         1 MOL     -0.048647
     54 C17        -4.6910    4.0420    1.3540 c3        1 MOL     -0.304255
     55 C18        -5.6900    2.9700    0.8120 c         1 MOL      0.684184
     56 O9         -6.7000    2.6750    1.3540 o         1 MOL     -0.583871
     57 H25        -2.7000    3.7350    0.6330 hn        1 MOL      0.048353
     58 H26        -5.1400    4.9570    1.7200 h1        1 MOL      0.128188
     59 H27        -4.3240    3.5980    2.2890 h1        1 MOL      0.128188
     60 N6         -5.4430    2.4430   -0.4100 n         1 MOL     -0.460077
     61 C19        -6.3460    1.6150   -1.2320 c3        1 MOL      0.034689
     62 C20        -6.8640    0.2740   -0.5910 c         1 MOL      0.368290
     63 O10        -7.8130   -0.3250   -1.1350 o         1 MOL     -0.543032
     64 C21        -5.7660    1.4470   -2.6520 c3        1 MOL     -0.353797
     65 C22        -4.8770    0.2440   -2.7280 c         1 MOL      0.832835
     66 N7         -5.0140   -0.6380   -3.6590 n         1 MOL     -0.802102
     67 O11        -3.9510    0.1450   -1.9290 o         1 MOL     -0.706228
     68 H28        -4.5330    2.6500   -0.8030 hn        1 MOL      0.322294
     69 H29        -7.2470    2.2010   -1.3800 h1        1 MOL      0.127043
     70 H30        -5.2320    2.3160   -3.0270 hc        1 MOL      0.126376
     71 H31        -6.6260    1.2280   -3.2910 hc        1 MOL      0.126376
     72 H32        -5.7430   -0.6350   -4.3710 hn        1 MOL      0.372403
     73 H33        -4.2270   -1.2600   -3.7540 hn        1 MOL      0.372403
     74 N8         -6.4940   -0.0750    0.6070 n         1 MOL      0.028702
     75 C23        -6.8990   -1.1890    1.4380 c3        1 MOL     -0.473659
     76 C24        -5.8140   -2.2810    1.5730 c         1 MOL      0.644675
     77 O12        -5.9530   -3.1520    2.4240 o         1 MOL     -0.567319
     78 H34        -6.0040    0.6700    1.0790 hn        1 MOL      0.182954
     79 H35        -7.7300   -1.7420    1.0280 h1        1 MOL      0.194410
     80 H36        -7.2690   -0.7290    2.3580 h1        1 MOL      0.194410
     81 N9         -4.7020   -2.1970    0.8270 n         1 MOL     -0.355763
     82 C25        -3.5410   -3.1400    0.9720 c3        1 MOL      0.282251
     83 C26        -2.1730   -2.4750    0.8990 c         1 MOL      0.243518
     84 O13        -1.9170   -1.3550    0.4030 o         1 MOL     -0.468927
     85 C27        -3.6910   -4.2170   -0.1000 c3        1 MOL      0.095753
     86 C28        -5.1460   -4.7740   -0.4120 ca        1 MOL     -0.040630
     87 C29        -5.9480   -4.2110   -1.4170 ca        1 MOL     -0.147821
     88 C30        -5.5370   -5.8990    0.3290 ca        1 MOL     -0.147821
     89 C31        -7.1910   -4.7470   -1.5720 ca        1 MOL     -0.192215
     90 C32        -6.7730   -6.4960    0.0420 ca        1 MOL     -0.192215
     91 C33        -7.6000   -5.9090   -0.9330 ca        1 MOL      0.225524
     92 O14        -8.9400   -6.2020   -1.1390 oh        1 MOL     -0.448318
     93 H37        -4.5970   -1.3790    0.2390 hn        1 MOL      0.129679
     94 H38        -3.6700   -3.6270    1.9430 h1        1 MOL      0.006573
     95 H39        -3.0480   -5.0820    0.0720 hc        1 MOL     -0.018449
     96 H40        -3.2130   -3.8440   -1.0030 hc        1 MOL     -0.018449
     97 H41        -5.6490   -3.3250   -1.9530 ha        1 MOL      0.129967
     98 H42        -4.9920   -6.3840    1.1180 ha        1 MOL      0.129967
     99 H43        -7.9060   -4.2830   -2.2490 ha        1 MOL      0.136210
    100 H44        -7.1640   -7.2950    0.6600 ha        1 MOL      0.136210
    101 H45        -9.1020   -6.8930   -0.4830 ho        1 MOL      0.345725
    102 N10        -1.1530   -3.1810    1.4220 n         1 MOL     -0.303353
    103 C34         0.2820   -2.8310    1.4760 c3        1 MOL     -0.082631
    104 C35         1.0820   -3.8900    0.7160 c         1 MOL      0.367803
    105 O15         0.9060   -5.1170    1.0170 o         1 MOL     -0.532453
    106 C36         0.8640   -2.6610    2.8720 c3        1 MOL      0.053047
    107 C37        -0.0780   -2.0320    3.9200 c3        1 MOL      0.211927
    108 C38         2.0420   -1.6000    2.6810 c3        1 MOL     -0.297543
    109 C39         0.4560   -2.2340    5.3540 c3        1 MOL     -0.354382
    110 H46        -1.3870   -4.0650    1.8570 hn        1 MOL      0.254959
    111 H47         0.4500   -1.8790    0.9630 h1        1 MOL      0.207401
    112 H48         1.1990   -3.6220    3.2590 hc        1 MOL      0.032238
    113 H49        -1.0950   -2.4310    3.8360 hc        1 MOL     -0.022249
    114 H50        -0.1600   -0.9660    3.6950 hc        1 MOL     -0.022249
    115 H51         2.9160   -1.9660    2.1410 hc        1 MOL      0.076883
    116 H52         1.5860   -0.7720    2.1390 hc        1 MOL      0.076883
    117 H53         2.5190   -1.2800    3.6120 hc        1 MOL      0.076883
    118 H54        -0.2390   -1.6000    5.9070 hc        1 MOL      0.081035
    119 H55         0.3520   -3.3010    5.5520 hc        1 MOL      0.081035
    120 H56         1.5110   -1.9830    5.4460 hc        1 MOL      0.081035
    121 N11         1.9350   -3.4390   -0.1880 n         1 MOL     -0.164639
    122 C40         3.0300   -4.2440   -0.7730 c3        1 MOL      0.055283
    123 C41         4.4330   -4.0530   -0.1360 c         1 MOL      0.492805
    124 O16         4.6970   -3.1840    0.6600 o         1 MOL     -0.387514
    125 C42         3.0760   -3.9180   -2.2430 c3        1 MOL     -0.112548
    126 O17         3.6110   -2.6220   -2.5030 oh        1 MOL     -0.501723
    127 H57         1.9270   -2.4370   -0.3540 hn        1 MOL      0.173211
    128 H58         2.7880   -5.3050   -0.6430 h1        1 MOL      0.050248
    129 H59         2.0370   -3.9900   -2.5850 h1        1 MOL      0.085869
    130 H60         3.6370   -4.6550   -2.8240 h1        1 MOL      0.085869
    131 H61         3.1010   -2.2500   -3.2200 ho        1 MOL      0.404693
    132 N12         5.3660   -4.8030   -0.7460 n         1 MOL     -0.449306
    133 C43         6.7170   -4.7920   -0.1800 c3        1 MOL      0.134830
    134 C44         7.6070   -3.5110   -0.4520 c         1 MOL      0.435763
    135 O18         8.3520   -3.0150    0.3800 o         1 MOL     -0.467920
    136 C45         7.4770   -5.9840   -0.8160 c3        1 MOL     -0.333647
    137 H62         5.1190   -5.3500   -1.5540 hn        1 MOL      0.303205
    138 H63         6.6680   -4.9170    0.9130 h1        1 MOL      0.078595
    139 H64         8.4100   -6.1140   -0.2640 hc        1 MOL      0.098282
    140 H65         6.8240   -6.8410   -0.6670 hc        1 MOL      0.098282
    141 H66         7.6640   -5.7770   -1.8750 hc        1 MOL      0.098282
    142 N13         7.4470   -2.9500   -1.7100 n         1 MOL     -0.323497
    143 C46         7.9820   -1.7230   -2.1540 c3        1 MOL     -0.032840
    144 C47         7.3280   -0.5270   -1.5450 c         1 MOL      0.380271
    145 O19         8.0520    0.4240   -1.1780 o         1 MOL     -0.526449
    146 C48         7.6900   -1.5670   -3.7060 c3        1 MOL     -0.246380
    147 H67         6.7600   -3.4310   -2.2740 hn        1 MOL      0.253383
    148 H68         9.0610   -1.7080   -1.9790 h1        1 MOL      0.143791
    149 H69         8.1650   -0.6640   -4.1060 hc        1 MOL      0.073980
    150 H70         8.0340   -2.3580   -4.3580 hc        1 MOL      0.073980
    151 H71         6.6480   -1.4150   -4.0040 hc        1 MOL      0.073980
    152 N14         6.0670   -0.5960   -1.1620 n         1 MOL     -0.088707
    153 C49         5.4040    0.3840   -0.2170 c3        1 MOL     -0.200637
    154 C50         5.8690    0.2780    1.2690 c         1 MOL      0.484801
    155 O20         5.9880    1.3030    1.9310 o         1 MOL     -0.527749
    156 C51         3.8390    0.3010   -0.3040 c3        1 MOL      0.082102
    157 C52         3.3150    0.7470   -1.6230 c3        1 MOL      0.288843
    158 C53         1.8250    0.4770   -1.6810 c         1 MOL      0.545434
    159 O21         1.0940    1.4310   -1.9120 o         1 MOL     -0.719329
    160 O22         1.1950   -0.6270   -1.3500 o         1 MOL     -0.719329
    161 H72         5.5450   -1.4120   -1.4510 hn        1 MOL      0.072267
    162 H73         5.7610    1.3010   -0.6730 h1        1 MOL      0.089632
    163 H74         3.5020    1.0250    0.4440 hc        1 MOL     -0.003435
    164 H75         3.5220   -0.7170   -0.0780 hc        1 MOL     -0.003435
    165 H76         3.8130    0.2360   -2.4430 hc        1 MOL     -0.123035
    166 H77         3.5060    1.8120   -1.7560 hc        1 MOL     -0.123035
    167 N15         6.0790   -0.9420    1.8160 n         1 MOL     -0.081048
    168 C54         6.7250   -1.1740    3.1150 c3        1 MOL     -0.273659
    169 H78         5.9640   -1.2410    3.8920 h1        1 MOL      0.110312
    170 H79         7.2910   -2.1050    3.0800 h1        1 MOL      0.110312
    171 H80         7.3990   -0.3470    3.3390 h1        1 MOL      0.110312
    172 H81         5.7930   -1.7430    1.2730 hn        1 MOL      0.133165
    173 Ca1        -1.2900    0.3840   -1.3160 Ca        1 MOL      1.783449
    174 O23        -1.3710   -1.9260   -2.5810 oh        1 MOL     -0.855260
    175 H82        -2.1140   -2.2030   -3.1210 ho        1 MOL      0.403438
    176 H83        -0.6920   -2.5740   -2.7600 ho        1 MOL      0.403438
    177 O24        -1.7700    0.6260   -3.9890 oh        1 MOL     -0.855260
    178 H84        -1.6200    0.3420   -4.8980 ho        1 MOL      0.403438
    179 H85        -2.0070    1.5560   -4.0650 ho        1 MOL      0.403438
@<TRIPOS>BOND
     1    1    2 1   
     2    1    4 1   
     3    1    5 1   
     4    1    6 1   
     5    2    3 2   
     6    2    7 1   
     7    7    8 1   
     8    7   15 1   
     9    8    9 1   
    10    8   11 1   
    11    8   16 1   
    12    9   10 2   
    13    9   19 1   
    14   11   12 1   
    15   11   17 1   
    16   11   18 1   
    17   12   13 1   
    18   12   14 1   
    19   19   20 1   
    20   19   28 1   
    21   20   21 1   
    22   20   23 1   
    23   20   29 1   
    24   21   22 2   
    25   21   41 1   
    26   23   24 1   
    27   23   30 1   
    28   23   31 1   
    29   24   25 1   
    30   24   32 1   
    31   24   33 1   
    32   25   26 1   
    33   25   34 1   
    34   25   35 1   
    35   26   27 1   
    36   26   36 1   
    37   26   37 1   
    38   27   38 1   
    39   27   39 1   
    40   27   40 1   
    41   41   42 1   
    42   41   49 1   
    43   42   43 1   
    44   42   45 1   
    45   42   50 1   
    46   43   44 2   
    47   43   53 1   
    48   45   46 1   
    49   45   51 1   
    50   45   52 1   
    51   46   47 1   
    52   46   48 1   
    53   53   54 1   
    54   53   57 1   
    55   54   55 1   
    56   54   58 1   
    57   54   59 1   
    58   55   56 2   
    59   55   60 1   
    60   60   61 1   
    61   60   68 1   
    62   61   62 1   
    63   61   64 1   
    64   61   69 1   
    65   62   63 2   
    66   62   74 1   
    67   64   65 1   
    68   64   70 1   
    69   64   71 1   
    70   65   66 1   
    71   65   67 2   
    72   66   72 1   
    73   66   73 1   
    74   74   75 1   
    75   74   78 1   
    76   75   76 1   
    77   75   79 1   
    78   75   80 1   
    79   76   77 2   
    80   76   81 1   
    81   81   82 1   
    82   81   93 1   
    83   82   83 1   
    84   82   85 1   
    85   82   94 1   
    86   83   84 2   
    87   83  102 1   
    88   85   86 1   
    89   85   95 1   
    90   85   96 1   
    91   86   87 ar  
    92   86   88 ar  
    93   87   89 ar  
    94   87   97 1   
    95   88   90 ar  
    96   88   98 1   
    97   89   91 ar  
    98   89   99 1   
    99   90   91 ar  
   100   90  100 1   
   101   91   92 1   
   102   92  101 1   
   103  102  103 1   
   104  102  110 1   
   105  103  104 1   
   106  103  106 1   
   107  103  111 1   
   108  104  105 2   
   109  104  121 1   
   110  106  107 1   
   111  106  108 1   
   112  106  112 1   
   113  107  109 1   
   114  107  113 1   
   115  107  114 1   
   116  108  115 1   
   117  108  116 1   
   118  108  117 1   
   119  109  118 1   
   120  109  119 1   
   121  109  120 1   
   122  121  122 1   
   123  121  127 1   
   124  122  123 1   
   125  122  125 1   
   126  122  128 1   
   127  123  124 2   
   128  123  132 1   
   129  125  126 1   
   130  125  129 1   
   131  125  130 1   
   132  126  131 1   
   133  132  133 1   
   134  132  137 1   
   135  133  134 1   
   136  133  136 1   
   137  133  138 1   
   138  134  135 2   
   139  134  142 1   
   140  136  139 1   
   141  136  140 1   
   142  136  141 1   
   143  142  143 1   
   144  142  147 1   
   145  143  144 1   
   146  143  146 1   
   147  143  148 1   
   148  144  145 2   
   149  144  152 1   
   150  146  149 1   
   151  146  150 1   
   152  146  151 1   
   153  152  153 1   
   154  152  161 1   
   155  153  154 1   
   156  153  156 1   
   157  153  162 1   
   158  154  155 2   
   159  154  167 1   
   160  156  157 1   
   161  156  163 1   
   162  156  164 1   
   163  157  158 1   
   164  157  165 1   
   165  157  166 1   
   166  158  159 1   
   167  158  160 1   
   168  167  168 1   
   169  167  172 1   
   170  168  169 1   
   171  168  170 1   
   172  168  171 1   
   173  174  175 1   
   174  174  176 1   
   175  177  178 1   
   176  177  179 1   
@<TRIPOS>SUBSTRUCTURE
     1 MOL         1 TEMP              0 ****  ****    0 ROOT
