@<TRIPOS>MOLECULE
MOL
  189   185     1     0     0
SMALL
resp


@<TRIPOS>ATOM
      1 C1         -0.0620    2.9020   -4.9480 c3        1 MOL     -0.403336
      2 C2          0.5770    2.5890   -3.5580 c         1 MOL      0.615698
      3 O1         -0.0840    2.6550   -2.5220 o         1 MOL     -0.548045
      4 H1         -0.9280    2.2590   -5.1020 hc        1 MOL      0.103927
      5 H2         -0.3750    3.9460   -4.9770 hc        1 MOL      0.103927
      6 H3          0.6710    2.7190   -5.7350 hc        1 MOL      0.103927
      7 N1          1.7970    2.2120   -3.5240 n         1 MOL     -0.589545
      8 C3          2.4810    1.6260   -2.3400 c3        1 MOL      0.563160
      9 C4          2.9880    2.7920   -1.4890 c         1 MOL      0.196938
     10 O2          4.2170    3.0180   -1.4060 o         1 MOL     -0.436504
     11 C5          3.5450    0.5370   -2.7060 c3        1 MOL     -0.205551
     12 C6          4.3310    0.2080   -1.4540 c         1 MOL      0.537496
     13 O3          3.7400    0.0880   -0.3420 o         1 MOL     -0.550888
     14 O4          5.4440   -0.2950   -1.6740 o         1 MOL     -0.550888
     15 H4          2.2640    2.2060   -4.4220 hn        1 MOL      0.301847
     16 H5          1.7740    1.0750   -1.7250 h1        1 MOL     -0.067354
     17 H6          4.1690    0.8550   -3.5470 hc        1 MOL      0.031827
     18 H7          2.9010   -0.3020   -3.0000 hc        1 MOL      0.031827
     19 N2          2.0840    3.6020   -0.9350 n         1 MOL     -0.308084
     20 C7          2.4310    4.9930   -0.4280 c3        1 MOL     -0.001183
     21 C8          3.1220    5.0120    0.9210 c         1 MOL      0.539740
     22 O5          3.6050    6.1020    1.2270 o         1 MOL     -0.592769
     23 C9          1.0910    5.8150   -0.3730 c3        1 MOL     -0.181286
     24 C10         0.6770    6.2280   -1.7920 c3        1 MOL      0.353830
     25 C11        -0.1270    7.5030   -1.7500 c3        1 MOL     -0.149341
     26 C12        -0.5340    8.2310   -3.0400 c3        1 MOL      0.032212
     27 N3         -1.6890    7.6020   -3.5960 n4        1 MOL     -0.406200
     28 H8          1.1390    3.2510   -0.9310 hn        1 MOL      0.263365
     29 H9          3.1350    5.4300   -1.1230 h1        1 MOL      0.113114
     30 H10         1.1480    6.6780    0.2860 hc        1 MOL      0.051195
     31 H11         0.3530    5.1230    0.0240 hc        1 MOL      0.051195
     32 H12         0.0800    5.5500   -2.3990 hc        1 MOL     -0.081102
     33 H13         1.5710    6.3790   -2.4020 hc        1 MOL     -0.081102
     34 H14         0.4360    8.2830   -1.2240 hc        1 MOL      0.055977
     35 H15        -1.0520    7.2030   -1.2680 hc        1 MOL      0.055977
     36 H16         0.2730    8.3540   -3.7620 hx        1 MOL      0.086322
     37 H17        -0.9130    9.2210   -2.8250 hx        1 MOL      0.086322
     38 H18        -1.2660    6.9090   -4.2030 hn        1 MOL      0.345637
     39 H19        -2.2500    7.1890   -2.8540 hn        1 MOL      0.345637
     40 H20        -2.2050    8.2160   -4.2090 hn        1 MOL      0.345637
     41 N4          3.2770    3.9220    1.6650 n         1 MOL     -0.343790
     42 C13         4.1590    3.9410    2.8110 c3        1 MOL      0.220964
     43 C14         5.4920    3.1400    2.5030 c         1 MOL      0.334430
     44 O6          6.4720    3.2880    3.2370 o         1 MOL     -0.529630
     45 C15         3.4340    3.3140    4.0450 c3        1 MOL     -0.127299
     46 C16         2.8300    1.8720    3.8780 c         1 MOL      0.711884
     47 O7          2.7410    1.4060    2.7590 o         1 MOL     -0.694384
     48 O8          2.5140    1.1930    4.9260 o         1 MOL     -0.694384
     49 H21         2.8810    3.0110    1.4790 hn        1 MOL      0.256341
     50 H22         4.5490    4.8630    3.2410 h1        1 MOL      0.037792
     51 H23         2.5710    3.9750    4.1260 hc        1 MOL      0.010139
     52 H24         4.0020    3.4060    4.9680 hc        1 MOL      0.010139
     53 N5          5.5660    2.4390    1.3890 n         1 MOL      0.047041
     54 C17         6.7030    1.7510    0.8960 c3        1 MOL     -0.139452
     55 C18         7.1190    0.4550    1.5530 c         1 MOL      0.527462
     56 O9          8.2290    0.3630    2.2050 o         1 MOL     -0.562646
     57 H25         4.7420    2.4550    0.7940 hn        1 MOL     -0.070611
     58 H26         7.5950    2.3730    0.9430 h1        1 MOL      0.077323
     59 H27         6.5840    1.6110   -0.1800 h1        1 MOL      0.077323
     60 N6          6.3040   -0.5830    1.3470 n         1 MOL     -0.193332
     61 C19         6.6750   -1.9140    1.7260 c3        1 MOL      0.059491
     62 C20         6.6390   -2.9660    0.6170 c         1 MOL      0.312296
     63 O10         7.1270   -4.0810    0.8520 o         1 MOL     -0.533131
     64 C21         5.7990   -2.4520    2.8850 c3        1 MOL     -0.125889
     65 C22         4.3360   -2.2930    2.6280 c         1 MOL      0.631047
     66 O11         3.5080   -1.7690    3.3840 o         1 MOL     -0.623398
     67 O12         3.8620   -2.6400    1.4950 o         1 MOL     -0.623398
     68 H28         5.5530   -0.5330    0.6710 hn        1 MOL     -0.014581
     69 H29         7.7070   -1.9000    2.0890 h1        1 MOL      0.090850
     70 H30         5.9870   -1.8770    3.7970 hc        1 MOL      0.045492
     71 H31         6.0350   -3.4870    3.1410 hc        1 MOL      0.045492
     72 N7          6.3500   -2.5510   -0.5970 n         1 MOL     -0.076664
     73 C23         6.4280   -3.3850   -1.8060 c3        1 MOL     -0.145626
     74 C24         5.2000   -4.1400   -2.1210 c         1 MOL      0.524759
     75 O13         5.2800   -5.1250   -2.7910 o         1 MOL     -0.553570
     76 H32         6.2130   -1.5630   -0.7690 hn        1 MOL      0.146102
     77 H33         7.2210   -4.1320   -1.6570 h1        1 MOL      0.089964
     78 H34         6.7900   -2.8150   -2.6520 h1        1 MOL      0.089964
     79 N8          4.0610   -3.7820   -1.5160 n         1 MOL     -0.236845
     80 C25         2.7150   -4.3600   -1.6090 c3        1 MOL     -0.422434
     81 C26         1.6040   -3.3700   -1.4820 c         1 MOL      0.744509
     82 O14         1.6960   -2.4490   -0.6830 o         1 MOL     -0.665682
     83 C27         2.4620   -5.4850   -0.5520 c3        1 MOL      0.406739
     84 C28         3.4830   -6.6330   -0.5510 c3        1 MOL     -0.391768
     85 O15         2.4080   -5.0220    0.7600 oh        1 MOL     -0.552895
     86 H35         4.0920   -2.9520   -0.9370 hn        1 MOL      0.286928
     87 H36         2.6590   -4.7960   -2.5990 h1        1 MOL      0.139811
     88 H37         1.4840   -5.9080   -0.7830 h1        1 MOL      0.014363
     89 H38         3.1680   -4.4410    0.8070 ho        1 MOL      0.350039
     90 H39         4.4260   -6.3110   -0.1120 hc        1 MOL      0.109602
     91 H40         3.2020   -7.5040    0.0420 hc        1 MOL      0.109602
     92 H41         3.6100   -7.0320   -1.5520 hc        1 MOL      0.109602
     93 N9          0.4970   -3.6760   -2.1520 n         1 MOL     -0.470993
     94 C29        -0.6710   -2.8420   -2.1910 c3        1 MOL      0.038948
     95 C30        -1.7750   -3.4580   -1.3810 c         1 MOL      0.474835
     96 O16        -2.0990   -4.6440   -1.5050 o         1 MOL     -0.562426
     97 C31        -1.0810   -2.6190   -3.7320 c3        1 MOL      0.377882
     98 C32         0.0490   -2.2700   -4.7210 c3        1 MOL      0.068308
     99 C33        -2.2190   -1.6380   -3.8530 c3        1 MOL     -0.240088
    100 C34        -0.2230   -2.2370   -6.2110 c3        1 MOL     -0.119368
    101 H42         0.5020   -4.5270   -2.6950 hn        1 MOL      0.271225
    102 H43        -0.4340   -1.9160   -1.6650 h1        1 MOL      0.081406
    103 H44        -1.5000   -3.5700   -4.0580 hc        1 MOL     -0.070846
    104 H45         0.7090   -3.1250   -4.5790 hc        1 MOL     -0.050566
    105 H46         0.4750   -1.3940   -4.2270 hc        1 MOL     -0.050566
    106 H47        -2.6630   -1.6480   -4.8520 hc        1 MOL      0.016246
    107 H48        -3.0140   -1.9550   -3.1810 hc        1 MOL      0.016246
    108 H49        -1.9620   -0.6330   -3.5260 hc        1 MOL      0.016246
    109 H50        -0.8240   -1.3880   -6.5330 hc        1 MOL      0.032423
    110 H51         0.6810   -2.1450   -6.8090 hc        1 MOL      0.032423
    111 H52        -0.6900   -3.1700   -6.5090 hc        1 MOL      0.032423
    112 N10        -2.4330   -2.6550   -0.5390 n         1 MOL     -0.146464
    113 C35        -3.6840   -2.8840    0.1660 c3        1 MOL     -0.007424
    114 C36        -4.9510   -2.3420   -0.5650 c         1 MOL      0.340458
    115 O17        -4.8940   -1.3670   -1.2780 o         1 MOL     -0.225338
    116 C37        -3.6080   -2.2820    1.6200 c3        1 MOL      0.238941
    117 C38        -2.3510   -2.8800    2.3540 c3        1 MOL     -0.500628
    118 O18        -3.4280   -0.8990    1.5160 oh        1 MOL     -0.482931
    119 H53        -2.1110   -1.7010   -0.4480 hn        1 MOL      0.074322
    120 H54        -4.0050   -3.9190    0.2860 h1        1 MOL      0.044848
    121 H55        -4.5110   -2.5210    2.1770 h1        1 MOL      0.035028
    122 H56        -2.4890   -0.7960    1.3220 ho        1 MOL      0.344760
    123 H57        -2.3070   -2.6070    3.4180 hc        1 MOL      0.144554
    124 H58        -2.3790   -3.9600    2.2510 hc        1 MOL      0.144554
    125 H59        -1.4680   -2.4250    1.9060 hc        1 MOL      0.144554
    126 N11        -6.1110   -2.8900   -0.2050 n         1 MOL     -0.282087
    127 C39        -7.4480   -2.3330   -0.5040 c3        1 MOL     -0.425755
    128 C40        -7.5450   -0.8250   -0.2970 c         1 MOL      0.630579
    129 O19        -7.9410   -0.0620   -1.2120 o         1 MOL     -0.517907
    130 C41        -8.5610   -3.0070    0.2380 c3        1 MOL      0.519739
    131 C42        -8.5770   -4.4980   -0.1730 c3        1 MOL     -0.440947
    132 O20        -8.4600   -2.8420    1.6150 oh        1 MOL     -0.711729
    133 H60        -6.0740   -3.6510    0.4550 hn        1 MOL      0.261266
    134 H61        -7.6150   -2.5080   -1.5690 h1        1 MOL      0.185956
    135 H62        -9.4810   -2.5840   -0.1620 h1        1 MOL      0.001691
    136 H63        -9.2130   -3.2490    2.0500 ho        1 MOL      0.425451
    137 H64        -8.2730   -4.6180   -1.2120 hc        1 MOL      0.118832
    138 H65        -7.9900   -5.1220    0.4970 hc        1 MOL      0.118832
    139 H66        -9.6060   -4.8610   -0.0530 hc        1 MOL      0.118832
    140 N12        -7.0620   -0.3320    0.8480 n         1 MOL     -0.626094
    141 C43        -6.9770    1.1020    1.1740 c3        1 MOL      0.121756
    142 C44        -6.0370    1.8280    0.1840 c         1 MOL      0.344263
    143 O21        -6.2820    2.9910   -0.1790 o         1 MOL     -0.526603
    144 C45        -6.4090    1.2570    2.6150 c3        1 MOL     -0.137304
    145 C46        -7.3440    0.8570    3.7600 c3        1 MOL      0.057782
    146 C47        -6.7530    1.1750    5.1660 c3        1 MOL     -0.137445
    147 C48        -7.5470    0.5300    6.2550 c3        1 MOL     -0.073257
    148 N13        -7.0540    0.9310    7.6000 n4        1 MOL     -0.161327
    149 H67        -6.7300   -1.0180    1.5200 hn        1 MOL      0.411393
    150 H68        -7.9640    1.5540    1.1540 h1        1 MOL      0.096503
    151 H69        -6.3650    2.3430    2.6470 hc        1 MOL      0.046202
    152 H70        -5.4040    0.8320    2.7330 hc        1 MOL      0.046202
    153 H71        -7.3600   -0.2340    3.7410 hc        1 MOL      0.025258
    154 H72        -8.3280    1.3070    3.6940 hc        1 MOL      0.025258
    155 H73        -6.8960    2.2380    5.3500 hc        1 MOL      0.083659
    156 H74        -5.7480    0.7750    5.1870 hc        1 MOL      0.083659
    157 H75        -7.3830   -0.5340    6.0820 hx        1 MOL      0.099195
    158 H76        -8.5780    0.8660    6.0980 hx        1 MOL      0.099195
    159 H77        -7.1660    1.8890    7.8970 hn        1 MOL      0.253405
    160 H78        -7.4180    0.2240    8.2200 hn        1 MOL      0.253405
    161 H79        -6.0780    0.6680    7.6560 hn        1 MOL      0.253405
    162 N14        -4.9740    1.1960   -0.2150 n         1 MOL     -0.008258
    163 C49        -3.9330    1.9420   -1.0430 c3        1 MOL     -0.118819
    164 C50        -4.5200    2.1990   -2.4340 c         1 MOL      0.482486
    165 O22        -4.3860    3.2280   -3.1040 o         1 MOL     -0.590637
    166 C51        -2.6410    1.1600   -0.9950 c3        1 MOL     -0.072235
    167 C52        -1.7040    1.7530    0.1230 c3        1 MOL     -0.103792
    168 C53        -0.4830    0.8640    0.3710 c         1 MOL      0.751011
    169 O23        -0.6700   -0.3770    0.6270 o         1 MOL     -0.717114
    170 O24         0.6510    1.3510    0.6080 o         1 MOL     -0.717114
    171 H80        -4.7110    0.3080    0.1780 hn        1 MOL      0.056776
    172 H81        -3.7640    2.9680   -0.7090 h1        1 MOL      0.086080
    173 H82        -2.1440    1.2700   -1.9610 hc        1 MOL      0.059848
    174 H83        -2.7860    0.1050   -0.7910 hc        1 MOL      0.059848
    175 H84        -2.2110    1.7530    1.0920 hc        1 MOL      0.024730
    176 H85        -1.3630    2.7530   -0.1120 hc        1 MOL      0.024730
    177 N15        -5.1410    1.1150   -2.9250 n         1 MOL     -0.043540
    178 C54        -5.8610    0.9580   -4.2120 c3        1 MOL     -0.165721
    179 H86        -6.5870    0.1490   -4.1260 h1        1 MOL      0.079177
    180 H87        -6.3800    1.8860   -4.4550 h1        1 MOL      0.079177
    181 H88        -5.1480    0.7230   -5.0020 h1        1 MOL      0.079177
    182 H89        -5.0820    0.3410   -2.2800 hn        1 MOL      0.022465
    183 Ca1         1.9440   -0.7210    1.4020 Ca        1 MOL      1.754553
    184 O25         0.7110   -0.5050    3.7070 oh        1 MOL     -0.883476
    185 H90         0.2400   -1.0550    4.3400 ho        1 MOL      0.400059
    186 H91         1.2090    0.1070    4.2440 ho        1 MOL      0.400059
    187 O26         0.9060   -3.0890    1.8260 oh        1 MOL     -0.883476
    188 H92         0.4380   -3.5680    2.5040 ho        1 MOL      0.400059
    189 H93         1.3700   -3.7640    1.3390 ho        1 MOL      0.400059
@<TRIPOS>BOND
     1    1    2 1   
     2    1    4 1   
     3    1    5 1   
     4    1    6 1   
     5    2    3 2   
     6    2    7 1   
     7    7    8 1   
     8    7   15 1   
     9    8    9 1   
    10    8   11 1   
    11    8   16 1   
    12    9   10 2   
    13    9   19 1   
    14   11   12 1   
    15   11   17 1   
    16   11   18 1   
    17   12   13 1   
    18   12   14 1   
    19   19   20 1   
    20   19   28 1   
    21   20   21 1   
    22   20   23 1   
    23   20   29 1   
    24   21   22 2   
    25   21   41 1   
    26   23   24 1   
    27   23   30 1   
    28   23   31 1   
    29   24   25 1   
    30   24   32 1   
    31   24   33 1   
    32   25   26 1   
    33   25   34 1   
    34   25   35 1   
    35   26   27 1   
    36   26   36 1   
    37   26   37 1   
    38   27   38 1   
    39   27   39 1   
    40   27   40 1   
    41   41   42 1   
    42   41   49 1   
    43   42   43 1   
    44   42   45 1   
    45   42   50 1   
    46   43   44 2   
    47   43   53 1   
    48   45   46 1   
    49   45   51 1   
    50   45   52 1   
    51   46   47 1   
    52   46   48 1   
    53   53   54 1   
    54   53   57 1   
    55   54   55 1   
    56   54   58 1   
    57   54   59 1   
    58   55   56 2   
    59   55   60 1   
    60   60   61 1   
    61   60   68 1   
    62   61   62 1   
    63   61   64 1   
    64   61   69 1   
    65   62   63 2   
    66   62   72 1   
    67   64   65 1   
    68   64   70 1   
    69   64   71 1   
    70   65   66 1   
    71   65   67 1   
    72   72   73 1   
    73   72   76 1   
    74   73   74 1   
    75   73   77 1   
    76   73   78 1   
    77   74   75 2   
    78   74   79 1   
    79   79   80 1   
    80   79   86 1   
    81   80   81 1   
    82   80   83 1   
    83   80   87 1   
    84   81   82 2   
    85   81   93 1   
    86   83   84 1   
    87   83   85 1   
    88   83   88 1   
    89   84   90 1   
    90   84   91 1   
    91   84   92 1   
    92   85   89 1   
    93   93   94 1   
    94   93  101 1   
    95   94   95 1   
    96   94   97 1   
    97   94  102 1   
    98   95   96 2   
    99   95  112 1   
   100   97   98 1   
   101   97   99 1   
   102   97  103 1   
   103   98  100 1   
   104   98  104 1   
   105   98  105 1   
   106   99  106 1   
   107   99  107 1   
   108   99  108 1   
   109  100  109 1   
   110  100  110 1   
   111  100  111 1   
   112  112  113 1   
   113  112  119 1   
   114  113  114 1   
   115  113  116 1   
   116  113  120 1   
   117  114  115 2   
   118  114  126 1   
   119  116  117 1   
   120  116  118 1   
   121  116  121 1   
   122  117  123 1   
   123  117  124 1   
   124  117  125 1   
   125  118  122 1   
   126  126  127 1   
   127  126  133 1   
   128  127  128 1   
   129  127  130 1   
   130  127  134 1   
   131  128  129 2   
   132  128  140 1   
   133  130  131 1   
   134  130  132 1   
   135  130  135 1   
   136  131  137 1   
   137  131  138 1   
   138  131  139 1   
   139  132  136 1   
   140  140  141 1   
   141  140  149 1   
   142  141  142 1   
   143  141  144 1   
   144  141  150 1   
   145  142  143 2   
   146  142  162 1   
   147  144  145 1   
   148  144  151 1   
   149  144  152 1   
   150  145  146 1   
   151  145  153 1   
   152  145  154 1   
   153  146  147 1   
   154  146  155 1   
   155  146  156 1   
   156  147  148 1   
   157  147  157 1   
   158  147  158 1   
   159  148  159 1   
   160  148  160 1   
   161  148  161 1   
   162  162  163 1   
   163  162  171 1   
   164  163  164 1   
   165  163  166 1   
   166  163  172 1   
   167  164  165 2   
   168  164  177 1   
   169  166  167 1   
   170  166  173 1   
   171  166  174 1   
   172  167  168 1   
   173  167  175 1   
   174  167  176 1   
   175  168  169 1   
   176  168  170 1   
   177  177  178 1   
   178  177  182 1   
   179  178  179 1   
   180  178  180 1   
   181  178  181 1   
   182  184  185 1   
   183  184  186 1   
   184  187  188 1   
   185  187  189 1   
@<TRIPOS>SUBSTRUCTURE
     1 MOL         1 TEMP              0 ****  ****    0 ROOT
