@<TRIPOS>MOLECULE
MOL
  179   176     1     0     0
SMALL
resp


@<TRIPOS>ATOM
      1 C1          0.7270    3.4020    6.9110 c3        1 MOL     -0.397559
      2 C2          1.0060    3.2120    5.4210 c         1 MOL      0.787857
      3 O1          2.1080    2.9980    4.9310 o         1 MOL     -0.587503
      4 H1          1.6470    3.2480    7.4750 hc        1 MOL      0.104697
      5 H2          0.3590    4.4120    7.0860 hc        1 MOL      0.104697
      6 H3         -0.0220    2.6800    7.2350 hc        1 MOL      0.104697
      7 N1         -0.0160    3.2450    4.5890 n         1 MOL     -0.656080
      8 C3          0.0690    2.9780    3.0900 c3        1 MOL      0.011901
      9 C4          0.1730    4.2160    2.2730 c         1 MOL      0.676394
     10 O2          0.0140    5.3670    2.7070 o         1 MOL     -0.552785
     11 C5         -1.2510    2.2850    2.6990 c3        1 MOL      0.027868
     12 C6         -1.1960    1.4870    1.3750 c         1 MOL      0.556031
     13 O3         -2.2280    1.5160    0.6760 o         1 MOL     -0.710965
     14 O4         -0.1520    1.2610    0.7580 o         1 MOL     -0.710965
     15 H4         -0.9620    3.2050    4.9290 hn        1 MOL      0.315820
     16 H5          0.9420    2.3810    2.8120 h1        1 MOL      0.095725
     17 H6         -2.1140    2.9580    2.6930 hc        1 MOL      0.013511
     18 H7         -1.4710    1.5640    3.4890 hc        1 MOL      0.013511
     19 N2          0.6120    4.0740    0.9970 n         1 MOL     -0.349695
     20 C7          1.0550    5.0130    0.0010 c3        1 MOL     -0.301985
     21 C8         -0.1160    5.5970   -0.7270 c         1 MOL      0.672145
     22 O5         -0.1060    6.7690   -1.0130 o         1 MOL     -0.583129
     23 C9          2.1010    4.3610   -0.8160 c3        1 MOL      0.402353
     24 C10         2.9420    5.2620   -1.6910 c3        1 MOL     -0.457532
     25 C11         4.1740    4.5930   -2.3190 c3        1 MOL      0.127529
     26 C12         4.8600    5.6700   -3.2500 c3        1 MOL      0.042987
     27 N3          6.2710    5.4320   -3.6890 n4        1 MOL     -0.489220
     28 H8          0.6790    3.1140    0.6950 hn        1 MOL      0.194158
     29 H9          1.5670    5.8350    0.4970 h1        1 MOL      0.121858
     30 H10         1.6880    3.5690   -1.4420 hc        1 MOL      0.008526
     31 H11         2.7230    3.8550   -0.0820 hc        1 MOL      0.008526
     32 H12         3.4470    6.0210   -1.1020 hc        1 MOL      0.111474
     33 H13         2.2700    5.6940   -2.4410 hc        1 MOL      0.111474
     34 H14         3.9140    3.7390   -2.9420 hc        1 MOL      0.024292
     35 H15         4.8760    4.1790   -1.5900 hc        1 MOL      0.024292
     36 H16         4.8870    6.5390   -2.5870 hx        1 MOL      0.079612
     37 H17         4.1740    5.8550   -4.0780 hx        1 MOL      0.079612
     38 H18         6.4630    5.9370   -4.5390 hn        1 MOL      0.368410
     39 H19         6.7530    5.8310   -2.8880 hn        1 MOL      0.368410
     40 H20         6.4950    4.4560   -3.7150 hn        1 MOL      0.368410
     41 N4         -1.0960    4.7360   -1.0010 n         1 MOL     -0.498884
     42 C13        -2.3180    5.0630   -1.8340 c3        1 MOL      0.139576
     43 C14        -3.6830    4.6220   -1.1610 c         1 MOL      0.482340
     44 O6         -4.7050    4.9360   -1.6440 o         1 MOL     -0.511937
     45 C15        -2.1660    4.4580   -3.2110 c3        1 MOL     -0.256641
     46 C16        -1.8960    2.9500   -3.2040 c         1 MOL      0.671956
     47 O7         -1.5210    2.4540   -4.3050 o         1 MOL     -0.634047
     48 O8         -2.0610    2.3150   -2.1330 o         1 MOL     -0.634047
     49 H21        -0.8430    3.7920   -0.7610 hn        1 MOL      0.287402
     50 H22        -2.4300    6.1420   -1.9170 h1        1 MOL      0.080825
     51 H23        -1.3020    4.9300   -3.6770 hc        1 MOL      0.068729
     52 H24        -3.0670    4.7580   -3.7510 hc        1 MOL      0.068729
     53 N5         -3.5810    3.9730    0.0190 n         1 MOL     -0.191005
     54 C17        -4.7300    3.7540    0.9360 c3        1 MOL     -0.291075
     55 C18        -5.7460    2.7080    0.5860 c         1 MOL      0.573164
     56 O9         -6.9190    2.6690    1.0960 o         1 MOL     -0.575807
     57 H25        -2.6990    3.6180    0.3580 hn        1 MOL      0.073796
     58 H26        -5.2820    4.6910    0.9440 h1        1 MOL      0.148523
     59 H27        -4.3590    3.5770    1.9440 h1        1 MOL      0.148523
     60 N6         -5.4220    1.9580   -0.5180 n         1 MOL     -0.324059
     61 C19        -6.3270    0.9750   -1.2070 c3        1 MOL      0.029702
     62 C20        -6.8870   -0.2140   -0.4710 c         1 MOL      0.424779
     63 O10        -7.6360   -0.9240   -1.0540 o         1 MOL     -0.512591
     64 C21        -5.5260    0.5030   -2.4560 c3        1 MOL     -0.330973
     65 C22        -4.7600   -0.7660   -2.1240 c         1 MOL      0.524129
     66 N7         -4.9870   -1.8300   -2.7630 n         1 MOL     -0.500949
     67 O11        -3.9210   -0.7190   -1.2580 o         1 MOL     -0.558028
     68 H28        -4.4650    1.9900   -0.8400 hn        1 MOL      0.240883
     69 H29        -7.1970    1.4610   -1.6390 h1        1 MOL      0.131407
     70 H30        -4.7630    1.2560   -2.6520 hc        1 MOL      0.116985
     71 H31        -6.1620    0.3630   -3.3300 hc        1 MOL      0.116985
     72 H32        -5.4650   -1.8090   -3.6510 hn        1 MOL      0.301480
     73 H33        -4.3650   -2.5710   -2.5150 hn        1 MOL      0.301480
     74 N8         -6.5480   -0.4740    0.7930 n         1 MOL     -0.203263
     75 C23        -6.9040   -1.6740    1.6660 c3        1 MOL     -0.213390
     76 C24        -5.8540   -2.6920    2.0960 c         1 MOL      0.495139
     77 O12        -6.2230   -3.5640    2.8490 o         1 MOL     -0.550770
     78 H34        -5.8890    0.1640    1.2230 hn        1 MOL      0.198610
     79 H35        -7.5890   -2.1920    0.9930 h1        1 MOL      0.130162
     80 H36        -7.3880   -1.2570    2.5530 h1        1 MOL      0.130162
     81 N9         -4.6070   -2.5740    1.6410 n         1 MOL     -0.106564
     82 C25        -3.4570   -3.3650    2.1550 c3        1 MOL     -0.095995
     83 C26        -2.1800   -2.5980    1.6870 c         1 MOL      0.244705
     84 O13        -2.2520   -1.7640    0.7760 o         1 MOL     -0.349439
     85 C27        -3.5140   -4.7950    1.5810 c3        1 MOL     -0.087628
     86 C28        -3.6740   -4.9610    0.0450 ca        1 MOL      0.043278
     87 C29        -2.5020   -4.9760   -0.8090 ca        1 MOL     -0.187348
     88 C30        -5.0130   -5.0680   -0.5160 ca        1 MOL     -0.187348
     89 C31        -2.6270   -5.1260   -2.2340 ca        1 MOL     -0.210994
     90 C32        -5.1210   -5.1250   -1.9090 ca        1 MOL     -0.210994
     91 C33        -3.9410   -5.2900   -2.7360 ca        1 MOL      0.241652
     92 O14        -4.2220   -5.4460   -4.0320 oh        1 MOL     -0.462994
     93 H37        -4.3340   -1.7960    1.0480 hn        1 MOL      0.120640
     94 H38        -3.6380   -3.4310    3.2260 h1        1 MOL      0.111521
     95 H39        -4.3800   -5.2540    2.0600 hc        1 MOL      0.060822
     96 H40        -2.6420   -5.3670    1.8880 hc        1 MOL      0.060822
     97 H41        -1.5300   -4.8120   -0.3880 ha        1 MOL      0.184570
     98 H42        -5.9070   -4.8480    0.0320 ha        1 MOL      0.184570
     99 H43        -1.7360   -5.2550   -2.8390 ha        1 MOL      0.137680
    100 H44        -6.0610   -5.1810   -2.4380 ha        1 MOL      0.137680
    101 H45        -3.4250   -5.5810   -4.5550 ho        1 MOL      0.357167
    102 N10        -1.0770   -2.8940    2.4880 n         1 MOL     -0.212089
    103 C34         0.2650   -2.3750    2.2070 c3        1 MOL     -0.002521
    104 C35         1.1400   -3.5000    1.5200 c         1 MOL      0.283066
    105 O15         1.2030   -4.5800    2.1580 o         1 MOL     -0.541800
    106 C36         0.8820   -1.6910    3.4240 c3        1 MOL      0.085193
    107 C37        -0.1970   -0.8310    4.1550 c3        1 MOL      0.100947
    108 C38         1.9920   -0.7360    3.1370 c3        1 MOL     -0.326704
    109 C39        -0.8790   -1.4800    5.3670 c3        1 MOL     -0.367774
    110 H46        -1.1590   -3.5140    3.2870 hn        1 MOL      0.266543
    111 H47         0.1170   -1.6890    1.3740 h1        1 MOL      0.062811
    112 H48         1.2670   -2.4460    4.1160 hc        1 MOL      0.023728
    113 H49        -0.9050   -0.5290    3.3890 hc        1 MOL      0.029993
    114 H50         0.2000    0.1090    4.5510 hc        1 MOL      0.029993
    115 H51         1.6780   -0.0760    2.3290 hc        1 MOL      0.076124
    116 H52         2.2400   -0.1710    4.0420 hc        1 MOL      0.076124
    117 H53         2.8680   -1.3220    2.8390 hc        1 MOL      0.076124
    118 H54        -1.2510   -0.6460    5.9490 hc        1 MOL      0.077613
    119 H55        -1.6690   -2.0930    4.9260 hc        1 MOL      0.077613
    120 H56        -0.1790   -2.0520    5.9890 hc        1 MOL      0.077613
    121 N11         1.8490   -3.1670    0.4590 n         1 MOL     -0.041835
    122 C40         2.6770   -4.0930   -0.2430 c3        1 MOL      0.000306
    123 C41         4.1930   -3.6940    0.0180 c         1 MOL      0.501775
    124 O16         4.5170   -2.7730    0.7960 o         1 MOL     -0.433667
    125 C42         2.3350   -4.1110   -1.7240 c3        1 MOL      0.279770
    126 O17         1.0160   -4.4690   -1.8580 oh        1 MOL     -0.676648
    127 H57         1.6120   -2.3290   -0.0650 hn        1 MOL      0.334547
    128 H58         2.5050   -5.0970    0.1400 h1        1 MOL      0.062923
    129 H59         3.0230   -4.8240   -2.1920 h1        1 MOL     -0.032732
    130 H60         2.4400   -3.0990   -2.1070 h1        1 MOL     -0.032732
    131 H61         0.9770   -4.7260   -2.7910 ho        1 MOL      0.411098
    132 N12         5.0300   -4.4520   -0.6280 n         1 MOL     -0.682021
    133 C43         6.4530   -4.6250   -0.2020 c3        1 MOL      0.261036
    134 C44         7.2610   -3.2530   -0.3170 c         1 MOL      0.393308
    135 O18         7.8600   -2.7830    0.6030 o         1 MOL     -0.495923
    136 C45         7.0510   -5.7530   -1.1630 c3        1 MOL     -0.626383
    137 H62         4.6020   -5.3200   -0.9380 hn        1 MOL      0.374459
    138 H63         6.4550   -4.9610    0.8350 h1        1 MOL      0.087032
    139 H64         8.1390   -5.7220   -1.0420 hc        1 MOL      0.183877
    140 H65         6.5810   -6.6620   -0.7710 hc        1 MOL      0.183877
    141 H66         6.8290   -5.6080   -2.2250 hc        1 MOL      0.183877
    142 N13         7.0460   -2.5010   -1.4270 n         1 MOL     -0.250337
    143 C46         7.7660   -1.2200   -1.6270 c3        1 MOL      0.011131
    144 C47         7.0720   -0.0570   -0.9350 c         1 MOL      0.430590
    145 O19         7.5580    1.0060   -0.7030 o         1 MOL     -0.514104
    146 C48         7.9860   -1.1160   -3.1860 c3        1 MOL     -0.266593
    147 H67         6.4660   -2.7560   -2.2130 hn        1 MOL      0.214678
    148 H68         8.7700   -1.2900   -1.2170 h1        1 MOL      0.130010
    149 H69         7.0470   -1.2430   -3.7260 hc        1 MOL      0.080127
    150 H70         8.3000   -0.0970   -3.3990 hc        1 MOL      0.080127
    151 H71         8.6450   -1.8740   -3.6070 hc        1 MOL      0.080127
    152 N14         5.7600   -0.2320   -0.7350 n         1 MOL     -0.278218
    153 C49         4.9260    0.8080   -0.0560 c3        1 MOL     -0.062299
    154 C50         5.3090    0.7760    1.4220 c         1 MOL      0.431612
    155 O20         5.5730    1.7960    2.0300 o         1 MOL     -0.526874
    156 C51         3.4500    0.4930   -0.2060 c3        1 MOL     -0.136225
    157 C52         2.9930    0.5450   -1.6420 c3        1 MOL     -0.093102
    158 C53         1.4900    0.1070   -1.6760 c         1 MOL      0.671326
    159 O21         0.7840    0.6420   -2.5480 o         1 MOL     -0.687276
    160 O22         1.0220   -0.8200   -0.9400 o         1 MOL     -0.687276
    161 H72         5.3110   -1.0890   -1.0000 hn        1 MOL      0.204779
    162 H73         5.1150    1.7630   -0.5500 h1        1 MOL      0.067476
    163 H74         2.9250    1.2600    0.3630 hc        1 MOL      0.033988
    164 H75         3.3110   -0.4480    0.3150 hc        1 MOL      0.033988
    165 H76         3.5540   -0.0790   -2.3460 hc        1 MOL      0.009617
    166 H77         3.2190    1.5670   -1.9370 hc        1 MOL      0.009617
    167 N15         5.5490   -0.4260    2.0110 n         1 MOL      0.013981
    168 C54         6.1130   -0.6080    3.3220 c3        1 MOL     -0.294928
    169 H78         5.5380   -1.3590    3.8630 h1        1 MOL      0.099256
    170 H79         7.1480   -0.9420    3.2300 h1        1 MOL      0.099256
    171 H80         6.0820    0.3360    3.8660 h1        1 MOL      0.099256
    172 H81         5.3840   -1.2940    1.5370 hn        1 MOL      0.152566
    173 Ca1        -1.4420    0.0690   -1.2130 Ca        1 MOL      1.681198
    174 O23        -1.1690   -2.4540   -1.9260 oh        1 MOL     -0.862390
    175 H82        -1.3170   -2.6780   -2.8510 ho        1 MOL      0.386401
    176 H83        -0.4210   -2.9800   -1.6590 ho        1 MOL      0.386401
    177 O24        -2.1360   -0.0150   -3.7940 oh        1 MOL     -0.862390
    178 H84        -2.7390   -0.3990   -4.4250 ho        1 MOL      0.386401
    179 H85        -1.9580    0.8610   -4.1160 ho        1 MOL      0.386401
@<TRIPOS>BOND
     1    1    2 1   
     2    1    4 1   
     3    1    5 1   
     4    1    6 1   
     5    2    3 2   
     6    2    7 1   
     7    7    8 1   
     8    7   15 1   
     9    8    9 1   
    10    8   11 1   
    11    8   16 1   
    12    9   10 2   
    13    9   19 1   
    14   11   12 1   
    15   11   17 1   
    16   11   18 1   
    17   12   13 1   
    18   12   14 1   
    19   19   20 1   
    20   19   28 1   
    21   20   21 1   
    22   20   23 1   
    23   20   29 1   
    24   21   22 2   
    25   21   41 1   
    26   23   24 1   
    27   23   30 1   
    28   23   31 1   
    29   24   25 1   
    30   24   32 1   
    31   24   33 1   
    32   25   26 1   
    33   25   34 1   
    34   25   35 1   
    35   26   27 1   
    36   26   36 1   
    37   26   37 1   
    38   27   38 1   
    39   27   39 1   
    40   27   40 1   
    41   41   42 1   
    42   41   49 1   
    43   42   43 1   
    44   42   45 1   
    45   42   50 1   
    46   43   44 2   
    47   43   53 1   
    48   45   46 1   
    49   45   51 1   
    50   45   52 1   
    51   46   47 1   
    52   46   48 1   
    53   53   54 1   
    54   53   57 1   
    55   54   55 1   
    56   54   58 1   
    57   54   59 1   
    58   55   56 2   
    59   55   60 1   
    60   60   61 1   
    61   60   68 1   
    62   61   62 1   
    63   61   64 1   
    64   61   69 1   
    65   62   63 2   
    66   62   74 1   
    67   64   65 1   
    68   64   70 1   
    69   64   71 1   
    70   65   66 1   
    71   65   67 2   
    72   66   72 1   
    73   66   73 1   
    74   74   75 1   
    75   74   78 1   
    76   75   76 1   
    77   75   79 1   
    78   75   80 1   
    79   76   77 2   
    80   76   81 1   
    81   81   82 1   
    82   81   93 1   
    83   82   83 1   
    84   82   85 1   
    85   82   94 1   
    86   83   84 2   
    87   83  102 1   
    88   85   86 1   
    89   85   95 1   
    90   85   96 1   
    91   86   87 ar  
    92   86   88 ar  
    93   87   89 ar  
    94   87   97 1   
    95   88   90 ar  
    96   88   98 1   
    97   89   91 ar  
    98   89   99 1   
    99   90   91 ar  
   100   90  100 1   
   101   91   92 1   
   102   92  101 1   
   103  102  103 1   
   104  102  110 1   
   105  103  104 1   
   106  103  106 1   
   107  103  111 1   
   108  104  105 2   
   109  104  121 1   
   110  106  107 1   
   111  106  108 1   
   112  106  112 1   
   113  107  109 1   
   114  107  113 1   
   115  107  114 1   
   116  108  115 1   
   117  108  116 1   
   118  108  117 1   
   119  109  118 1   
   120  109  119 1   
   121  109  120 1   
   122  121  122 1   
   123  121  127 1   
   124  122  123 1   
   125  122  125 1   
   126  122  128 1   
   127  123  124 2   
   128  123  132 1   
   129  125  126 1   
   130  125  129 1   
   131  125  130 1   
   132  126  131 1   
   133  132  133 1   
   134  132  137 1   
   135  133  134 1   
   136  133  136 1   
   137  133  138 1   
   138  134  135 2   
   139  134  142 1   
   140  136  139 1   
   141  136  140 1   
   142  136  141 1   
   143  142  143 1   
   144  142  147 1   
   145  143  144 1   
   146  143  146 1   
   147  143  148 1   
   148  144  145 2   
   149  144  152 1   
   150  146  149 1   
   151  146  150 1   
   152  146  151 1   
   153  152  153 1   
   154  152  161 1   
   155  153  154 1   
   156  153  156 1   
   157  153  162 1   
   158  154  155 2   
   159  154  167 1   
   160  156  157 1   
   161  156  163 1   
   162  156  164 1   
   163  157  158 1   
   164  157  165 1   
   165  157  166 1   
   166  158  159 1   
   167  158  160 1   
   168  167  168 1   
   169  167  172 1   
   170  168  169 1   
   171  168  170 1   
   172  168  171 1   
   173  174  175 1   
   174  174  176 1   
   175  177  178 1   
   176  177  179 1   
@<TRIPOS>SUBSTRUCTURE
     1 MOL         1 TEMP              0 ****  ****    0 ROOT
