@<TRIPOS>MOLECULE
MOL
  172   171     1     0     0
SMALL
resp


@<TRIPOS>ATOM
      1 C1          0.2060    4.2200    5.1870 c3        1 MOL     -0.347938
      2 C2         -0.5330    4.0890    3.8230 c         1 MOL      0.542324
      3 O1          0.2140    4.1680    2.7640 o         1 MOL     -0.538376
      4 H1         -0.4500    3.8830    5.9890 hc        1 MOL      0.087615
      5 H2          1.1070    3.6080    5.1720 hc        1 MOL      0.087615
      6 H3          0.4770    5.2620    5.3550 hc        1 MOL      0.087615
      7 N1         -1.7760    3.7310    3.8360 n         1 MOL     -0.355716
      8 C3         -2.4760    3.5340    2.5790 c3        1 MOL      0.034855
      9 C4         -3.1880    4.7850    1.9480 c         1 MOL      0.549273
     10 O2         -3.7210    5.6170    2.6790 o         1 MOL     -0.573196
     11 C5         -3.6610    2.5270    2.8230 c3        1 MOL     -0.195559
     12 C6         -4.2310    2.1110    1.4880 c         1 MOL      0.538352
     13 O3         -5.4580    1.9750    1.4570 o         1 MOL     -0.594120
     14 O4         -3.4810    1.9840    0.4780 o         1 MOL     -0.594120
     15 H4         -2.2310    3.7880    4.7270 hn        1 MOL      0.275291
     16 H5         -1.7770    3.2130    1.8090 h1        1 MOL      0.015979
     17 H6         -4.3840    3.0590    3.4350 hc        1 MOL      0.050232
     18 H7         -3.3320    1.6540    3.3830 hc        1 MOL      0.050232
     19 N2         -3.2150    4.8080    0.6090 n         1 MOL     -0.450625
     20 C7         -4.0780    5.6980   -0.2440 c3        1 MOL      0.285057
     21 C8         -4.4250    4.9400   -1.5550 c         1 MOL      0.483636
     22 O5         -4.4450    5.5510   -2.6270 o         1 MOL     -0.557117
     23 C9         -3.5460    7.1510   -0.3910 c3        1 MOL     -0.237255
     24 H8         -2.6000    4.1880    0.1000 hn        1 MOL      0.324111
     25 H9         -5.0570    5.7670    0.2390 h1        1 MOL      0.026091
     26 H10        -3.4720    7.6500    0.5760 hc        1 MOL      0.050684
     27 H11        -2.6200    7.2520   -0.9480 hc        1 MOL      0.050684
     28 H12        -4.3630    7.6000   -0.9600 hc        1 MOL      0.050684
     29 N3         -4.6560    3.6430   -1.5500 n         1 MOL     -0.417908
     30 C10        -5.3030    3.0080   -2.7080 c3        1 MOL      0.071413
     31 C11        -6.4570    2.0440   -2.3170 c         1 MOL      0.412662
     32 O6         -7.3120    1.6840   -3.0950 o         1 MOL     -0.543974
     33 C12        -4.2680    2.2630   -3.5260 c3        1 MOL     -0.267750
     34 C13        -3.4930    1.2440   -2.7340 c         1 MOL      0.809239
     35 O7         -2.2930    1.2600   -2.8330 o         1 MOL     -0.744024
     36 O8         -4.0220    0.4280   -2.0070 o         1 MOL     -0.744024
     37 H13        -4.4600    3.0240   -0.7720 hn        1 MOL      0.254220
     38 H14        -5.7770    3.7820   -3.3090 h1        1 MOL      0.083505
     39 H15        -3.6270    3.0790   -3.8500 hc        1 MOL      0.076463
     40 H16        -4.7680    1.8500   -4.3970 hc        1 MOL      0.076463
     41 N4         -6.6480    1.6340   -1.0210 n         1 MOL     -0.230769
     42 C14        -7.6440    0.7090   -0.6140 c3        1 MOL     -0.342915
     43 C15        -7.4200   -0.7750   -0.6690 c         1 MOL      0.515139
     44 O9         -8.2790   -1.5510   -0.2230 o         1 MOL     -0.612771
     45 H17        -5.8880    1.8160   -0.3870 hn        1 MOL      0.156069
     46 H18        -8.5440    0.9390   -1.1930 h1        1 MOL      0.151264
     47 H19        -7.7600    0.9830    0.4350 h1        1 MOL      0.151264
     48 N5         -6.2790   -1.1940   -1.2530 n         1 MOL     -0.025414
     49 C16        -6.1370   -2.4850   -1.7830 c3        1 MOL     -0.194261
     50 C17        -5.8640   -3.5540   -0.7290 c         1 MOL      0.484988
     51 O10        -5.9230   -4.7500   -1.1050 o         1 MOL     -0.524871
     52 C18        -5.1400   -2.6370   -2.9460 c3        1 MOL     -0.142428
     53 C19        -3.7260   -2.4090   -2.3960 c         1 MOL      0.447733
     54 N6         -2.7060   -2.4820   -3.2970 n         1 MOL     -0.668559
     55 O11        -3.4580   -2.2010   -1.2380 o         1 MOL     -0.240403
     56 H20        -5.5490   -0.5020   -1.2510 hn        1 MOL      0.163029
     57 H21        -7.0920   -2.6890   -2.2720 h1        1 MOL      0.131662
     58 H22        -5.3540   -1.9360   -3.7580 hc        1 MOL      0.071744
     59 H23        -5.0990   -3.6270   -3.3880 hc        1 MOL      0.071744
     60 H24        -2.8680   -2.7190   -4.2670 hn        1 MOL      0.322953
     61 H25        -1.7730   -2.2800   -2.9670 hn        1 MOL      0.322953
     62 N7         -5.7680   -3.2210    0.5980 n         1 MOL     -0.256193
     63 C20        -5.6580   -4.1900    1.6740 c3        1 MOL     -0.274837
     64 C21        -4.2310   -4.6810    1.9040 c         1 MOL      0.514516
     65 O12        -3.9960   -5.5840    2.7070 o         1 MOL     -0.596894
     66 H26        -5.8360   -2.2820    0.9630 hn        1 MOL      0.278057
     67 H27        -6.3710   -5.0000    1.5320 h1        1 MOL      0.126992
     68 H28        -5.9100   -3.7040    2.6170 h1        1 MOL      0.126992
     69 N8         -3.2330   -4.1310    1.1950 n         1 MOL     -0.060571
     70 C22        -1.8470   -4.6200    1.3890 c3        1 MOL     -0.244051
     71 C23        -0.8480   -3.4630    1.5220 c         1 MOL      0.525441
     72 O13        -0.9920   -2.3940    0.9260 o         1 MOL     -0.465103
     73 C24        -1.4560   -5.4680    0.1220 c3        1 MOL      0.468113
     74 C25        -2.2240   -6.7450   -0.1220 c3        1 MOL     -0.257848
     75 O14        -1.3530   -4.7250   -1.1540 oh        1 MOL     -0.661516
     76 H29        -3.4140   -3.4230    0.4890 hn        1 MOL      0.058937
     77 H30        -1.7590   -5.2810    2.2470 h1        1 MOL      0.095225
     78 H31        -0.4470   -5.7730    0.3960 h1        1 MOL     -0.061191
     79 H32        -0.9560   -3.8520   -1.0650 ho        1 MOL      0.416817
     80 H33        -2.1640   -7.4980    0.6640 hc        1 MOL      0.069185
     81 H34        -3.2560   -6.5540   -0.4080 hc        1 MOL      0.069185
     82 H35        -1.7580   -7.3240   -0.9260 hc        1 MOL      0.069185
     83 N9          0.2060   -3.7480    2.1910 n         1 MOL     -0.547472
     84 C26         1.3780   -2.8530    2.1600 c3        1 MOL     -0.020830
     85 C27         2.0370   -3.0050    0.7280 c         1 MOL      0.612464
     86 O15         2.6420   -3.9500    0.3320 o         1 MOL     -0.595949
     87 C28         2.4060   -3.2430    3.2980 c3        1 MOL      0.075427
     88 C29         1.7270   -3.6150    4.6660 c3        1 MOL      0.136621
     89 C30         3.1310   -1.9030    3.3970 c3        1 MOL     -0.183933
     90 C31         2.7010   -3.9670    5.8440 c3        1 MOL     -0.138621
     91 H36         0.2760   -4.7250    2.4210 hn        1 MOL      0.334192
     92 H37         1.0460   -1.8240    2.2070 h1        1 MOL      0.215260
     93 H38         3.0480   -4.0820    3.0160 hc        1 MOL     -0.002343
     94 H39         1.0410   -4.4410    4.4940 hc        1 MOL     -0.035458
     95 H40         1.0740   -2.7720    4.9000 hc        1 MOL     -0.035458
     96 H41         3.9060   -1.8250    4.1630 hc        1 MOL      0.037804
     97 H42         3.5710   -1.6690    2.4280 hc        1 MOL      0.037804
     98 H43         2.4770   -1.0710    3.6650 hc        1 MOL      0.037804
     99 H44         2.8870   -5.0450    5.8450 hc        1 MOL      0.025449
    100 H45         3.6330   -3.4310    5.7350 hc        1 MOL      0.025449
    101 H46         2.2760   -3.7010    6.8100 hc        1 MOL      0.025449
    102 N10         1.9280   -1.9280   -0.0530 n         1 MOL      0.033971
    103 C32         2.7180   -1.7040   -1.2410 c3        1 MOL      0.060566
    104 C33         4.0990   -1.1140   -0.9640 c         1 MOL      0.552022
    105 O16         4.2850   -0.5800    0.1570 o         1 MOL     -0.405914
    106 C34         1.8500   -0.9240   -2.2320 c3        1 MOL     -0.255895
    107 C35         0.5450   -1.5650   -2.5360 c         1 MOL      0.735631
    108 O17         0.6340   -2.4080   -3.4570 o         1 MOL     -0.677504
    109 O18        -0.5850   -1.3950   -2.0000 o         1 MOL     -0.677504
    110 H47         1.4430   -1.1170    0.3030 hn        1 MOL     -0.465060
    111 H48         2.8560   -2.6160   -1.8130 h1        1 MOL      0.049422
    112 H49         2.4670   -0.5380   -3.0460 hc        1 MOL      0.089537
    113 H50         1.5320   -0.0330   -1.7070 hc        1 MOL      0.089537
    114 N11         5.1060   -1.2040   -1.8470 n         1 MOL     -0.807273
    115 C36         6.5030   -0.8640   -1.5940 c3        1 MOL      0.699250
    116 C37         6.7000    0.5480   -1.0720 c         1 MOL      0.158768
    117 O19         7.3960    0.6450   -0.0850 o         1 MOL     -0.506593
    118 C38         7.3140   -1.1770   -2.8740 c3        1 MOL     -0.309964
    119 C39         8.8100   -1.1690   -2.6100 ca        1 MOL      0.173539
    120 C40         9.5810   -0.0550   -2.9570 ca        1 MOL     -0.218213
    121 C41         9.5170   -2.2810   -2.0380 ca        1 MOL     -0.218213
    122 C42        10.9510    0.0170   -2.6030 ca        1 MOL     -0.073257
    123 C43        10.8590   -2.2700   -1.8250 ca        1 MOL     -0.073257
    124 C44        11.5770   -1.1070   -2.0670 ca        1 MOL     -0.117628
    125 H51         4.8490   -1.7000   -2.6900 hn        1 MOL      0.356618
    126 H52         7.0010   -1.5290   -0.8970 h1        1 MOL     -0.039132
    127 H53         6.9970   -0.4200   -3.5990 hc        1 MOL      0.070251
    128 H54         7.0650   -2.2150   -3.1080 hc        1 MOL      0.070251
    129 H55         9.0040    0.7460   -3.4010 ha        1 MOL      0.126252
    130 H56         8.9240   -3.1220   -1.7150 ha        1 MOL      0.126252
    131 H57        11.4930    0.9170   -2.8540 ha        1 MOL      0.104038
    132 H58        11.3010   -3.1580   -1.3940 ha        1 MOL      0.104038
    133 H59        12.6470   -1.2230   -1.9560 ha        1 MOL      0.088464
    134 N12         6.1660    1.6310   -1.6800 n         1 MOL      0.093502
    135 C45         6.3280    2.9230   -0.9910 c3        1 MOL     -0.033813
    136 C46         5.6110    3.1140    0.3610 c         1 MOL      0.330765
    137 O20         5.9540    4.0310    1.1230 o         1 MOL     -0.503916
    138 C47         5.8630    3.9400   -2.0550 c3        1 MOL     -0.245260
    139 C48         4.9570    3.2020   -2.9910 c3        1 MOL      0.177963
    140 C49         5.2980    1.7250   -2.9140 c3        1 MOL     -0.304451
    141 H60         7.4020    3.1040   -0.9490 h1        1 MOL      0.089918
    142 H61         5.3380    4.8260   -1.7120 hc        1 MOL      0.083868
    143 H62         6.8170    4.2080   -2.5030 hc        1 MOL      0.083868
    144 H63         3.8910    3.3300   -2.8070 hc        1 MOL      0.001926
    145 H64         5.1490    3.5920   -3.9900 hc        1 MOL      0.001926
    146 H65         4.3900    1.1920   -2.6460 h1        1 MOL      0.105701
    147 H66         5.8510    1.4370   -3.8110 h1        1 MOL      0.105701
    148 N13         4.6700    2.2130    0.6570 n         1 MOL     -0.041630
    149 C50         3.8630    2.3250    1.8730 c3        1 MOL     -0.084316
    150 C51         4.6660    1.6320    2.9630 c         1 MOL      0.303490
    151 O21         4.8120    2.1900    4.0780 o         1 MOL     -0.574365
    152 C52         2.5400    1.6180    1.6690 c3        1 MOL     -0.003134
    153 C53         1.8100    2.0960    0.4090 c3        1 MOL     -0.078165
    154 C54         0.4320    1.6350    0.2640 c         1 MOL      0.766616
    155 O22        -0.4030    2.2560   -0.3530 o         1 MOL     -0.733577
    156 O23         0.1590    0.5040    0.7270 o         1 MOL     -0.733577
    157 H67         4.4680    1.4780   -0.0010 hn        1 MOL      0.068309
    158 H68         3.6220    3.3540    2.1340 h1        1 MOL      0.129215
    159 H69         1.8450    1.8560    2.4730 hc        1 MOL      0.063365
    160 H70         2.6910    0.5370    1.5760 hc        1 MOL      0.063365
    161 H71         2.3410    1.8110   -0.4990 hc        1 MOL      0.037814
    162 H72         1.7280    3.1800    0.4430 hc        1 MOL      0.037814
    163 N14         5.4360    0.6690    2.6990 n         1 MOL      0.147279
    164 C55         6.4280    0.0370    3.5340 c3        1 MOL     -0.157463
    165 H73         7.4050    0.4740    3.3310 h1        1 MOL      0.056860
    166 H74         6.1730    0.1910    4.5830 h1        1 MOL      0.056860
    167 H75         6.4560   -1.0320    3.3200 h1        1 MOL      0.056860
    168 H76         5.2470    0.2050    1.8250 hn        1 MOL      0.042660
    169 Ca1        -2.0950   -0.0450   -0.4250 Ca        1 MOL      1.684719
    170 O24        -3.7340   -1.1300    1.5280 oh        1 MOL     -1.026322
    171 H77        -4.5750   -1.0580    1.9910 ho        1 MOL      0.460892
    172 H78        -3.0850   -0.8460    2.1680 ho        1 MOL      0.460892
@<TRIPOS>BOND
     1    1    2 1   
     2    1    4 1   
     3    1    5 1   
     4    1    6 1   
     5    2    3 2   
     6    2    7 1   
     7    7    8 1   
     8    7   15 1   
     9    8    9 1   
    10    8   11 1   
    11    8   16 1   
    12    9   10 2   
    13    9   19 1   
    14   11   12 1   
    15   11   17 1   
    16   11   18 1   
    17   12   13 1   
    18   12   14 1   
    19   19   20 1   
    20   19   24 1   
    21   20   21 1   
    22   20   23 1   
    23   20   25 1   
    24   21   22 2   
    25   21   29 1   
    26   23   26 1   
    27   23   27 1   
    28   23   28 1   
    29   29   30 1   
    30   29   37 1   
    31   30   31 1   
    32   30   33 1   
    33   30   38 1   
    34   31   32 2   
    35   31   41 1   
    36   33   34 1   
    37   33   39 1   
    38   33   40 1   
    39   34   35 1   
    40   34   36 1   
    41   41   42 1   
    42   41   45 1   
    43   42   43 1   
    44   42   46 1   
    45   42   47 1   
    46   43   44 2   
    47   43   48 1   
    48   48   49 1   
    49   48   56 1   
    50   49   50 1   
    51   49   52 1   
    52   49   57 1   
    53   50   51 2   
    54   50   62 1   
    55   52   53 1   
    56   52   58 1   
    57   52   59 1   
    58   53   54 1   
    59   53   55 2   
    60   54   60 1   
    61   54   61 1   
    62   62   63 1   
    63   62   66 1   
    64   63   64 1   
    65   63   67 1   
    66   63   68 1   
    67   64   65 2   
    68   64   69 1   
    69   69   70 1   
    70   69   76 1   
    71   70   71 1   
    72   70   73 1   
    73   70   77 1   
    74   71   72 2   
    75   71   83 1   
    76   73   74 1   
    77   73   75 1   
    78   73   78 1   
    79   74   80 1   
    80   74   81 1   
    81   74   82 1   
    82   75   79 1   
    83   83   84 1   
    84   83   91 1   
    85   84   85 1   
    86   84   87 1   
    87   84   92 1   
    88   85   86 2   
    89   85  102 1   
    90   87   88 1   
    91   87   89 1   
    92   87   93 1   
    93   88   90 1   
    94   88   94 1   
    95   88   95 1   
    96   89   96 1   
    97   89   97 1   
    98   89   98 1   
    99   90   99 1   
   100   90  100 1   
   101   90  101 1   
   102  102  103 1   
   103  102  110 1   
   104  103  104 1   
   105  103  106 1   
   106  103  111 1   
   107  104  105 2   
   108  104  114 1   
   109  106  107 1   
   110  106  112 1   
   111  106  113 1   
   112  107  108 1   
   113  107  109 1   
   114  114  115 1   
   115  114  125 1   
   116  115  116 1   
   117  115  118 1   
   118  115  126 1   
   119  116  117 2   
   120  116  134 1   
   121  118  119 1   
   122  118  127 1   
   123  118  128 1   
   124  119  120 ar  
   125  119  121 ar  
   126  120  122 ar  
   127  120  129 1   
   128  121  123 ar  
   129  121  130 1   
   130  122  124 ar  
   131  122  131 1   
   132  123  124 ar  
   133  123  132 1   
   134  124  133 1   
   135  134  135 1   
   136  134  140 1   
   137  135  136 1   
   138  135  138 1   
   139  135  141 1   
   140  136  137 2   
   141  136  148 1   
   142  138  139 1   
   143  138  142 1   
   144  138  143 1   
   145  139  140 1   
   146  139  144 1   
   147  139  145 1   
   148  140  146 1   
   149  140  147 1   
   150  148  149 1   
   151  148  157 1   
   152  149  150 1   
   153  149  152 1   
   154  149  158 1   
   155  150  151 2   
   156  150  163 1   
   157  152  153 1   
   158  152  159 1   
   159  152  160 1   
   160  153  154 1   
   161  153  161 1   
   162  153  162 1   
   163  154  155 1   
   164  154  156 1   
   165  163  164 1   
   166  163  168 1   
   167  164  165 1   
   168  164  166 1   
   169  164  167 1   
   170  170  171 1   
   171  170  172 1   
@<TRIPOS>SUBSTRUCTURE
     1 MOL         1 TEMP              0 ****  ****    0 ROOT
