@<TRIPOS>MOLECULE
MOL
  189   185     1     0     0
SMALL
resp


@<TRIPOS>ATOM
      1 C1         -0.7970    2.1600    5.7120 c3        1 MOL     -0.338461
      2 C2         -1.0190    2.0270    4.2160 c         1 MOL      0.819573
      3 O1         -0.1630    2.4450    3.4180 o         1 MOL     -0.702713
      4 H1          0.2710    2.2210    5.9160 hc        1 MOL      0.085318
      5 H2         -1.2870    3.0640    6.0730 hc        1 MOL      0.085318
      6 H3         -1.2150    1.2910    6.2200 hc        1 MOL      0.085318
      7 N1         -2.1050    1.4470    3.7580 n         1 MOL     -0.696705
      8 C3         -2.6330    1.4520    2.4070 c3        1 MOL      0.288278
      9 C4         -2.9210    2.8950    2.0280 c         1 MOL      0.342297
     10 O2         -3.9010    3.5140    2.4740 o         1 MOL     -0.564464
     11 C5         -3.8890    0.6050    2.3620 c3        1 MOL     -0.148871
     12 C6         -4.5600    0.4950    0.9900 c         1 MOL      0.658983
     13 O3         -5.8000    0.3150    1.0410 o         1 MOL     -0.646600
     14 O4         -3.9170    0.5110   -0.1150 o         1 MOL     -0.646600
     15 H4         -2.6960    0.9460    4.4010 hn        1 MOL      0.327353
     16 H5         -1.8600    0.9480    1.8380 h1        1 MOL      0.003881
     17 H6         -4.5870    0.9520    3.1090 hc        1 MOL      0.031982
     18 H7         -3.6080   -0.3920    2.7020 hc        1 MOL      0.031982
     19 N2         -2.2090    3.4790    1.1220 n         1 MOL      0.028966
     20 C7         -2.2850    4.8320    0.5710 c3        1 MOL      0.096723
     21 C8         -3.2180    4.9130   -0.6090 c         1 MOL      0.396247
     22 O5         -3.6290    6.0030   -0.9770 o         1 MOL     -0.557544
     23 C9         -0.9000    5.3910    0.2270 c3        1 MOL     -0.074019
     24 C10        -0.1940    5.9840    1.4380 c3        1 MOL     -0.142633
     25 C11        -0.8730    7.2510    1.9660 c3        1 MOL     -0.006653
     26 C12         0.0170    8.1630    2.8400 c3        1 MOL     -0.143565
     27 N3          1.0550    8.9060    2.0880 n4        1 MOL     -0.224715
     28 H8         -1.5440    2.8910    0.6390 hn        1 MOL      0.071350
     29 H9         -2.6920    5.4970    1.3300 h1        1 MOL     -0.005638
     30 H10        -1.0380    6.1490   -0.5410 hc        1 MOL      0.035825
     31 H11        -0.2810    4.6270   -0.2310 hc        1 MOL      0.035825
     32 H12         0.8720    6.0720    1.2460 hc        1 MOL      0.069680
     33 H13        -0.3930    5.3000    2.2620 hc        1 MOL      0.069680
     34 H14        -1.6800    6.9920    2.6460 hc        1 MOL      0.073900
     35 H15        -1.2180    7.8020    1.0930 hc        1 MOL      0.073900
     36 H16         0.5050    7.5260    3.5660 hx        1 MOL      0.130932
     37 H17        -0.7000    8.8620    3.2770 hx        1 MOL      0.130932
     38 H18         1.6900    8.4610    1.4370 hn        1 MOL      0.292522
     39 H19         0.6850    9.6960    1.5800 hn        1 MOL      0.292522
     40 H20         1.6420    9.3040    2.8090 hn        1 MOL      0.292522
     41 N4         -3.4850    3.7480   -1.2460 n         1 MOL     -0.241482
     42 C13        -4.2150    3.6380   -2.4860 c3        1 MOL      0.009353
     43 C14        -5.3970    2.7840   -2.3890 c         1 MOL      0.490865
     44 O6         -5.9370    2.5260   -3.4430 o         1 MOL     -0.528742
     45 C15        -3.2850    3.3680   -3.6670 c3        1 MOL     -0.071483
     46 C16        -2.3650    2.2760   -3.4970 c         1 MOL      0.760121
     47 O7         -2.4300    1.5330   -2.5320 o         1 MOL     -0.748515
     48 O8         -1.3900    2.2110   -4.3510 o         1 MOL     -0.748515
     49 H21        -3.1460    2.8790   -0.8620 hn        1 MOL      0.180871
     50 H22        -4.6490    4.6040   -2.7360 h1        1 MOL      0.081439
     51 H23        -2.5910    4.1800   -3.8610 hc        1 MOL      0.024014
     52 H24        -3.8830    3.3040   -4.5780 hc        1 MOL      0.024014
     53 N5         -5.8790    2.4620   -1.1710 n         1 MOL     -0.339990
     54 C17        -7.2920    1.9570   -0.9450 c3        1 MOL     -0.289979
     55 C18        -7.5580    0.5090   -1.3380 c         1 MOL      0.635012
     56 O9         -8.7240    0.1710   -1.4470 o         1 MOL     -0.624446
     57 H25        -5.2400    2.6700   -0.4210 hn        1 MOL      0.236385
     58 H26        -8.0140    2.5810   -1.4590 h1        1 MOL      0.142643
     59 H27        -7.3470    2.1130    0.1330 h1        1 MOL      0.142643
     60 N6         -6.5600   -0.2610   -1.6440 n         1 MOL     -0.271695
     61 C19        -6.6640   -1.6690   -2.1770 c3        1 MOL     -0.083052
     62 C20        -6.7320   -2.7770   -1.1070 c         1 MOL      0.356749
     63 O10        -6.7850   -3.9640   -1.4720 o         1 MOL     -0.498905
     64 C21        -5.5470   -1.9690   -3.2080 c3        1 MOL     -0.214116
     65 C22        -4.0920   -2.0460   -2.5850 c         1 MOL      0.712042
     66 O11        -3.7850   -2.0310   -1.3650 o         1 MOL     -0.669987
     67 O12        -3.2100   -2.0980   -3.4340 o         1 MOL     -0.669987
     68 H28        -5.6300    0.0780   -1.4120 hn        1 MOL      0.207902
     69 H29        -7.6000   -1.6220   -2.7240 h1        1 MOL      0.135687
     70 H30        -5.5970   -1.2390   -4.0230 hc        1 MOL      0.084676
     71 H31        -5.7550   -2.9520   -3.6170 hc        1 MOL      0.084676
     72 N7         -6.7020   -2.3620    0.2010 n         1 MOL     -0.121267
     73 C23        -6.7800   -3.2840    1.3210 c3        1 MOL     -0.267135
     74 C24        -5.4710   -4.0170    1.6220 c         1 MOL      0.592694
     75 O13        -5.4570   -5.0200    2.3620 o         1 MOL     -0.583024
     76 H32        -6.7280   -1.3630    0.3610 hn        1 MOL      0.231341
     77 H33        -7.5500   -4.0280    1.1060 h1        1 MOL      0.122297
     78 H34        -6.9950   -2.6970    2.2120 h1        1 MOL      0.122297
     79 N8         -4.3360   -3.5840    1.0630 n         1 MOL     -0.321679
     80 C25        -2.9890   -4.2200    1.1700 c3        1 MOL     -0.047351
     81 C26        -1.7780   -3.3010    1.2990 c         1 MOL      0.678689
     82 O14        -1.8040   -2.1280    0.9820 o         1 MOL     -0.616236
     83 C27        -2.7330   -5.1840   -0.0350 c3        1 MOL      0.244682
     84 C28        -3.6650   -6.4410   -0.1030 c3        1 MOL     -0.404617
     85 O15        -2.8040   -4.5700   -1.3320 oh        1 MOL     -0.567245
     86 H35        -4.3760   -2.8080    0.4270 hn        1 MOL      0.178429
     87 H36        -2.9880   -4.8550    2.0490 h1        1 MOL      0.080052
     88 H37        -1.7060   -5.5590    0.0730 h1        1 MOL      0.065750
     89 H38        -3.6650   -4.1560   -1.2980 ho        1 MOL      0.418567
     90 H39        -3.2670   -7.1830    0.5970 hc        1 MOL      0.113229
     91 H40        -4.7060   -6.2140    0.1380 hc        1 MOL      0.113229
     92 H41        -3.6600   -6.8980   -1.0920 hc        1 MOL      0.113229
     93 N9         -0.5860   -3.9100    1.5900 n         1 MOL     -0.695159
     94 C29         0.7170   -3.2530    1.7230 c3        1 MOL      0.046571
     95 C30         1.7390   -3.8000    0.7170 c         1 MOL      0.542342
     96 O16         1.9440   -5.0120    0.5530 o         1 MOL     -0.553088
     97 C31         1.2220   -3.3760    3.2830 c3        1 MOL      0.091453
     98 C32         0.3260   -2.4450    4.2110 c3        1 MOL      0.207612
     99 C33         2.6860   -3.0830    3.4370 c3        1 MOL     -0.419554
    100 C34         0.6310   -2.5720    5.6950 c3        1 MOL     -0.214611
    101 H42        -0.5220   -4.8940    1.7840 hn        1 MOL      0.321018
    102 H43         0.5100   -2.2070    1.4830 h1        1 MOL      0.075677
    103 H44         1.0220   -4.4100    3.5680 hc        1 MOL      0.024585
    104 H45        -0.7280   -2.6710    4.1070 hc        1 MOL     -0.034221
    105 H46         0.4820   -1.4220    3.8820 hc        1 MOL     -0.034221
    106 H47         3.2070   -3.8740    2.9050 hc        1 MOL      0.096358
    107 H48         2.9830   -2.1320    3.0060 hc        1 MOL      0.096358
    108 H49         2.8330   -2.9610    4.5080 hc        1 MOL      0.096358
    109 H50        -0.2370   -2.1910    6.2160 hc        1 MOL      0.047688
    110 H51         0.7670   -3.5970    6.0530 hc        1 MOL      0.047688
    111 H52         1.3850   -1.8420    5.9850 hc        1 MOL      0.047688
    112 N10         2.2240   -2.8170   -0.0480 n         1 MOL     -0.170375
    113 C35         3.4440   -2.8550   -0.9940 c3        1 MOL     -0.115868
    114 C36         4.8250   -2.6250   -0.3150 c         1 MOL      0.473067
    115 O17         4.9110   -1.9650    0.7280 o         1 MOL     -0.456266
    116 C37         3.3200   -1.8690   -2.1630 c3        1 MOL      0.187054
    117 C38         2.1190   -2.0390   -3.0920 c3        1 MOL     -0.223806
    118 O18         3.1880   -0.5600   -1.6710 oh        1 MOL     -0.465179
    119 H53         1.8110   -1.9130    0.1400 hn        1 MOL      0.107466
    120 H54         3.4150   -3.8510   -1.4420 h1        1 MOL      0.073812
    121 H55         4.1880   -1.8900   -2.8220 h1        1 MOL      0.032373
    122 H56         2.2660   -0.5610   -1.4020 ho        1 MOL      0.296651
    123 H57         2.1950   -3.0110   -3.5700 hc        1 MOL      0.064395
    124 H58         1.1790   -1.8670   -2.5670 hc        1 MOL      0.064395
    125 H59         2.2190   -1.3320   -3.9180 hc        1 MOL      0.064395
    126 N11         5.9260   -2.9070   -1.0090 n         1 MOL     -0.361780
    127 C39         7.3050   -2.5660   -0.5940 c3        1 MOL     -0.092038
    128 C40         7.5200   -1.0660   -0.2720 c         1 MOL      0.199766
    129 O19         8.4440   -0.6460    0.4420 o         1 MOL     -0.502027
    130 C41         8.4330   -2.9470   -1.5560 c3        1 MOL      0.249797
    131 C42         8.5600   -4.4810   -1.7200 c3        1 MOL     -0.456760
    132 O20         8.0960   -2.2150   -2.7970 oh        1 MOL     -0.622343
    133 H60         5.8170   -3.2590   -1.9430 hn        1 MOL      0.275823
    134 H61         7.5920   -3.2230    0.2250 h1        1 MOL      0.159288
    135 H62         9.3690   -2.4440   -1.3180 h1        1 MOL      0.069784
    136 H63         8.9300   -2.1790   -3.2660 ho        1 MOL      0.401808
    137 H64         9.3270   -4.6510   -2.4700 hc        1 MOL      0.141023
    138 H65         8.7570   -4.8930   -0.7270 hc        1 MOL      0.141023
    139 H66         7.5670   -4.8480   -1.9770 hc        1 MOL      0.141023
    140 N12         6.7020   -0.1600   -0.7880 n         1 MOL      0.056876
    141 C43         6.6920    1.2790   -0.6680 c3        1 MOL      0.066359
    142 C44         6.0400    1.7200    0.6020 c         1 MOL      0.402574
    143 O21         6.5870    2.4150    1.4170 o         1 MOL     -0.495826
    144 C45         5.9420    1.7820   -1.9770 c3        1 MOL     -0.075878
    145 C46         6.7890    1.4920   -3.3300 c3        1 MOL     -0.038684
    146 C47         8.2070    1.9930   -3.5250 c3        1 MOL     -0.308287
    147 C48         8.2440    3.5000   -3.4600 c3        1 MOL      0.232750
    148 N13         9.4520    4.0590   -4.1520 n4        1 MOL     -0.390096
    149 H67         6.1540   -0.5470   -1.5390 hn        1 MOL      0.220424
    150 H68         7.7200    1.6510   -0.6780 h1        1 MOL      0.010183
    151 H69         5.9080    2.8700   -1.8760 hc        1 MOL      0.030729
    152 H70         4.9650    1.3250   -2.0900 hc        1 MOL      0.030729
    153 H71         6.0850    1.8660   -4.0700 hc        1 MOL      0.042011
    154 H72         6.7830    0.3950   -3.3540 hc        1 MOL      0.042011
    155 H73         8.5250    1.6430   -4.5020 hc        1 MOL      0.105964
    156 H74         8.8140    1.4760   -2.7750 hc        1 MOL      0.105964
    157 H75         8.1630    3.8980   -2.4460 hx        1 MOL      0.057506
    158 H76         7.4440    4.0280   -3.9720 hx        1 MOL      0.057506
    159 H77        10.2040    3.8920   -3.5050 hn        1 MOL      0.302349
    160 H78         9.6350    3.5190   -4.9910 hn        1 MOL      0.302349
    161 H79         9.4100    5.0430   -4.3920 hn        1 MOL      0.302349
    162 N14         4.7890    1.1460    0.7280 n         1 MOL     -0.233478
    163 C49         4.0700    1.1050    2.0520 c3        1 MOL     -0.362583
    164 C50         4.7930    0.2740    3.1870 c         1 MOL      0.567368
    165 O22         4.5390    0.5470    4.3410 o         1 MOL     -0.557418
    166 C51         2.5950    0.6410    1.8610 c3        1 MOL     -0.045861
    167 C52         1.6910    1.4910    0.9240 c3        1 MOL      0.089462
    168 C53         0.5190    0.7840    0.2550 c         1 MOL      0.527257
    169 O23         0.7710   -0.3350   -0.2670 o         1 MOL     -0.598758
    170 O24        -0.4850    1.4840   -0.0050 o         1 MOL     -0.598758
    171 H80         4.4290    0.6470   -0.0720 hn        1 MOL      0.109805
    172 H81         4.0230    2.1690    2.2940 h1        1 MOL      0.160693
    173 H82         2.0730    0.5360    2.8180 hc        1 MOL      0.098437
    174 H83         2.7450   -0.3910    1.5210 hc        1 MOL      0.098437
    175 H84         2.2090    2.0420    0.1400 hc        1 MOL      0.009566
    176 H85         1.3610    2.3610    1.5070 hc        1 MOL      0.009566
    177 N15         5.6050   -0.7280    2.8970 n         1 MOL     -0.152040
    178 C54         6.2950   -1.4250    3.9210 c3        1 MOL     -0.182312
    179 H86         6.0860   -0.9560    4.8830 h1        1 MOL      0.071746
    180 H87         5.9620   -2.4620    3.9430 h1        1 MOL      0.071746
    181 H88         7.3670   -1.3920    3.7260 h1        1 MOL      0.071746
    182 H89         5.8390   -0.9640    1.9480 hn        1 MOL      0.260607
    183 Ca1        -1.7070   -0.5120   -1.1740 Ca        1 MOL      1.711653
    184 O25        -0.8110   -2.9800   -1.9280 oh        1 MOL     -0.809171
    185 H90        -1.4530   -3.6480   -1.6740 ho        1 MOL      0.389451
    186 H91        -0.2400   -3.4210   -2.5450 ho        1 MOL      0.389451
    187 O26        -0.4400   -0.2070   -3.4600 oh        1 MOL     -0.809171
    188 H92        -0.4780    0.6590   -3.8660 ho        1 MOL      0.389451
    189 H93        -0.3450   -0.8090   -4.1870 ho        1 MOL      0.389451
@<TRIPOS>BOND
     1    1    2 1   
     2    1    4 1   
     3    1    5 1   
     4    1    6 1   
     5    2    3 2   
     6    2    7 1   
     7    7    8 1   
     8    7   15 1   
     9    8    9 1   
    10    8   11 1   
    11    8   16 1   
    12    9   10 2   
    13    9   19 1   
    14   11   12 1   
    15   11   17 1   
    16   11   18 1   
    17   12   13 1   
    18   12   14 1   
    19   19   20 1   
    20   19   28 1   
    21   20   21 1   
    22   20   23 1   
    23   20   29 1   
    24   21   22 2   
    25   21   41 1   
    26   23   24 1   
    27   23   30 1   
    28   23   31 1   
    29   24   25 1   
    30   24   32 1   
    31   24   33 1   
    32   25   26 1   
    33   25   34 1   
    34   25   35 1   
    35   26   27 1   
    36   26   36 1   
    37   26   37 1   
    38   27   38 1   
    39   27   39 1   
    40   27   40 1   
    41   41   42 1   
    42   41   49 1   
    43   42   43 1   
    44   42   45 1   
    45   42   50 1   
    46   43   44 2   
    47   43   53 1   
    48   45   46 1   
    49   45   51 1   
    50   45   52 1   
    51   46   47 1   
    52   46   48 1   
    53   53   54 1   
    54   53   57 1   
    55   54   55 1   
    56   54   58 1   
    57   54   59 1   
    58   55   56 2   
    59   55   60 1   
    60   60   61 1   
    61   60   68 1   
    62   61   62 1   
    63   61   64 1   
    64   61   69 1   
    65   62   63 2   
    66   62   72 1   
    67   64   65 1   
    68   64   70 1   
    69   64   71 1   
    70   65   66 1   
    71   65   67 1   
    72   72   73 1   
    73   72   76 1   
    74   73   74 1   
    75   73   77 1   
    76   73   78 1   
    77   74   75 2   
    78   74   79 1   
    79   79   80 1   
    80   79   86 1   
    81   80   81 1   
    82   80   83 1   
    83   80   87 1   
    84   81   82 2   
    85   81   93 1   
    86   83   84 1   
    87   83   85 1   
    88   83   88 1   
    89   84   90 1   
    90   84   91 1   
    91   84   92 1   
    92   85   89 1   
    93   93   94 1   
    94   93  101 1   
    95   94   95 1   
    96   94   97 1   
    97   94  102 1   
    98   95   96 2   
    99   95  112 1   
   100   97   98 1   
   101   97   99 1   
   102   97  103 1   
   103   98  100 1   
   104   98  104 1   
   105   98  105 1   
   106   99  106 1   
   107   99  107 1   
   108   99  108 1   
   109  100  109 1   
   110  100  110 1   
   111  100  111 1   
   112  112  113 1   
   113  112  119 1   
   114  113  114 1   
   115  113  116 1   
   116  113  120 1   
   117  114  115 2   
   118  114  126 1   
   119  116  117 1   
   120  116  118 1   
   121  116  121 1   
   122  117  123 1   
   123  117  124 1   
   124  117  125 1   
   125  118  122 1   
   126  126  127 1   
   127  126  133 1   
   128  127  128 1   
   129  127  130 1   
   130  127  134 1   
   131  128  129 2   
   132  128  140 1   
   133  130  131 1   
   134  130  132 1   
   135  130  135 1   
   136  131  137 1   
   137  131  138 1   
   138  131  139 1   
   139  132  136 1   
   140  140  141 1   
   141  140  149 1   
   142  141  142 1   
   143  141  144 1   
   144  141  150 1   
   145  142  143 2   
   146  142  162 1   
   147  144  145 1   
   148  144  151 1   
   149  144  152 1   
   150  145  146 1   
   151  145  153 1   
   152  145  154 1   
   153  146  147 1   
   154  146  155 1   
   155  146  156 1   
   156  147  148 1   
   157  147  157 1   
   158  147  158 1   
   159  148  159 1   
   160  148  160 1   
   161  148  161 1   
   162  162  163 1   
   163  162  171 1   
   164  163  164 1   
   165  163  166 1   
   166  163  172 1   
   167  164  165 2   
   168  164  177 1   
   169  166  167 1   
   170  166  173 1   
   171  166  174 1   
   172  167  168 1   
   173  167  175 1   
   174  167  176 1   
   175  168  169 1   
   176  168  170 1   
   177  177  178 1   
   178  177  182 1   
   179  178  179 1   
   180  178  180 1   
   181  178  181 1   
   182  184  185 1   
   183  184  186 1   
   184  187  188 1   
   185  187  189 1   
@<TRIPOS>SUBSTRUCTURE
     1 MOL         1 TEMP              0 ****  ****    0 ROOT
