@<TRIPOS>MOLECULE
MOL
  189   185     1     0     0
SMALL
resp


@<TRIPOS>ATOM
      1 C1          0.9860   -3.4520    6.1720 c3        1 MOL     -0.542450
      2 C2          1.1700   -2.9370    4.7190 c         1 MOL      0.738122
      3 O1          0.9150   -1.7510    4.3690 o         1 MOL     -0.613905
      4 H1          1.9580   -3.5070    6.6630 hc        1 MOL      0.144902
      5 H2          0.3400   -2.7680    6.7230 hc        1 MOL      0.144902
      6 H3          0.5340   -4.4440    6.1530 hc        1 MOL      0.144902
      7 N1          1.5620   -3.9310    3.8790 n         1 MOL     -0.632090
      8 C3          2.0370   -3.7190    2.5360 c3        1 MOL      0.408792
      9 C4          1.7130   -4.9290    1.6290 c         1 MOL      0.393342
     10 O2          1.6560   -6.0380    2.1340 o         1 MOL     -0.561367
     11 C5          3.5260   -3.5100    2.6650 c3        1 MOL     -0.350030
     12 C6          4.1740   -3.1530    1.2590 c         1 MOL      0.677874
     13 O3          3.5160   -2.4720    0.4600 o         1 MOL     -0.644975
     14 O4          5.3090   -3.5770    0.9530 o         1 MOL     -0.644975
     15 H4          1.6240   -4.8630    4.2640 hn        1 MOL      0.320939
     16 H5          1.5990   -2.8420    2.0730 h1        1 MOL     -0.074364
     17 H6          3.9760   -4.3900    3.1020 hc        1 MOL      0.062227
     18 H7          3.7750   -2.5760    3.1850 hc        1 MOL      0.062227
     19 N2          1.6270   -4.6540    0.3050 n         1 MOL     -0.109207
     20 C7          1.6780   -5.5900   -0.7810 c3        1 MOL     -0.102436
     21 C8          2.7420   -5.2760   -1.8300 c         1 MOL      0.491110
     22 O5          2.9920   -6.1290   -2.6090 o         1 MOL     -0.576962
     23 C9          0.3070   -5.9250   -1.3500 c3        1 MOL      0.147904
     24 C10        -0.3280   -4.7340   -2.0220 c3        1 MOL      0.174992
     25 C11        -0.6920   -6.5760   -0.3920 c3        1 MOL     -0.198762
     26 C12        -1.4690   -5.0900   -3.0380 c3        1 MOL     -0.496032
     27 H8          1.6630   -3.6680    0.0760 hn        1 MOL      0.240927
     28 H9          2.0850   -6.5020   -0.3670 h1        1 MOL      0.070798
     29 H10         0.4990   -6.6110   -2.1810 hc        1 MOL     -0.019889
     30 H11         0.4420   -4.2190   -2.6010 hc        1 MOL      0.008588
     31 H12        -0.6510   -3.9540   -1.3230 hc        1 MOL      0.008588
     32 H13        -0.2000   -7.3720    0.1730 hc        1 MOL      0.028785
     33 H14        -1.1580   -5.8780    0.3050 hc        1 MOL      0.028785
     34 H15        -1.4860   -7.0040   -0.9940 hc        1 MOL      0.028785
     35 H16        -1.0120   -5.6270   -3.8660 hc        1 MOL      0.123090
     36 H17        -2.2590   -5.6620   -2.5550 hc        1 MOL      0.123090
     37 H18        -1.8850   -4.1500   -3.3810 hc        1 MOL      0.123090
     38 N3          3.2020   -4.0170   -1.9430 n         1 MOL     -0.178423
     39 C13         3.8190   -3.4780   -3.1480 c3        1 MOL      0.055688
     40 C14         5.1900   -2.8310   -3.0560 c         1 MOL      0.308444
     41 O6          5.9290   -2.6120   -4.0320 o         1 MOL     -0.550324
     42 C15         2.7990   -2.6510   -3.9860 c3        1 MOL     -0.149982
     43 C16         2.1770   -1.4080   -3.2610 c         1 MOL      0.735422
     44 O7          2.6780   -0.9920   -2.2210 o         1 MOL     -0.704492
     45 O8          1.1830   -0.9130   -3.8420 o         1 MOL     -0.704492
     46 H19         3.0200   -3.3760   -1.1810 hn        1 MOL      0.059411
     47 H20         4.0320   -4.2930   -3.8380 h1        1 MOL      0.073044
     48 H21         2.0490   -3.3440   -4.3680 hc        1 MOL      0.038520
     49 H22         3.2390   -2.3320   -4.9280 hc        1 MOL      0.038520
     50 N4          5.5350   -2.4080   -1.8220 n         1 MOL      0.007287
     51 C17         6.8490   -1.8390   -1.4830 c3        1 MOL     -0.102037
     52 C18         7.1160   -0.3610   -1.9640 c         1 MOL      0.415361
     53 O9          8.2570    0.1390   -1.8200 o         1 MOL     -0.602055
     54 H23         4.9110   -2.5800   -1.0490 hn        1 MOL     -0.015627
     55 H24         7.7060   -2.4560   -1.7630 h1        1 MOL      0.074245
     56 H25         6.9370   -1.8210   -0.3920 h1        1 MOL      0.074245
     57 N5          6.1340    0.3970   -2.4110 n         1 MOL     -0.219659
     58 C19         6.1880    1.8340   -2.6640 c3        1 MOL      0.007344
     59 C20         6.5190    2.7680   -1.4990 c         1 MOL      0.383299
     60 O10         6.8550    3.9570   -1.8080 o         1 MOL     -0.534399
     61 C21         4.9530    2.4220   -3.3320 c3        1 MOL     -0.324325
     62 C22         3.6550    2.3250   -2.5220 c         1 MOL      0.811772
     63 O11         3.6540    1.5860   -1.4690 o         1 MOL     -0.709858
     64 O12         2.5610    2.7800   -2.9480 o         1 MOL     -0.709858
     65 H26         5.2190   -0.0240   -2.3280 hn        1 MOL      0.233563
     66 H27         6.9260    2.0070   -3.4400 h1        1 MOL      0.108383
     67 H28         4.8140    1.8590   -4.2630 hc        1 MOL      0.090161
     68 H29         5.1250    3.4790   -3.5070 hc        1 MOL      0.090161
     69 N6          6.4310    2.3060   -0.2260 n         1 MOL     -0.176356
     70 C23         6.7330    3.1380    0.9840 c3        1 MOL     -0.238130
     71 C24         5.6390    3.9720    1.6170 c         1 MOL      0.531777
     72 O13         5.9580    4.9100    2.3710 o         1 MOL     -0.556469
     73 H30         6.0160    1.3980   -0.0520 hn        1 MOL      0.238482
     74 H31         7.4040    3.9560    0.7250 h1        1 MOL      0.105820
     75 H32         7.2290    2.4030    1.6300 h1        1 MOL      0.105820
     76 N7          4.3680    3.6050    1.2600 n         1 MOL     -0.185772
     77 C25         3.0830    4.1670    1.6870 c3        1 MOL     -0.345340
     78 C26         1.9490    3.1260    1.8380 c         1 MOL      0.629833
     79 O14         1.6590    2.3160    0.9430 o         1 MOL     -0.558636
     80 C27         2.6070    5.3280    0.8180 c3        1 MOL     -0.025604
     81 C28         3.5310    6.5210    0.7740 c3        1 MOL     -0.136025
     82 C29         2.9240    7.8230    0.2590 c         1 MOL      0.569772
     83 N8          2.4220    7.8610   -0.9620 n         1 MOL     -0.743791
     84 O15         2.9760    8.8350    0.9310 o         1 MOL     -0.582455
     85 H33         4.2020    2.8140    0.6530 hn        1 MOL      0.186351
     86 H34         3.2060    4.5970    2.6790 h1        1 MOL      0.116442
     87 H35         1.5860    5.5810    1.1090 hc        1 MOL      0.075724
     88 H36         2.4730    4.9690   -0.2030 hc        1 MOL      0.075724
     89 H37         4.4080    6.3100    0.1480 hc        1 MOL      0.094025
     90 H38         3.8710    6.6620    1.7940 hc        1 MOL      0.094025
     91 H39         2.2170    7.0620   -1.5470 hn        1 MOL      0.350062
     92 H40         2.1250    8.8040   -1.1420 hn        1 MOL      0.350062
     93 N9          1.2070    3.1550    2.9340 n         1 MOL     -0.577738
     94 C30        -0.0580    2.4030    3.1120 c3        1 MOL      0.073641
     95 C31        -1.0630    2.9560    2.0530 c         1 MOL      0.623749
     96 O16        -1.1580    4.1880    1.9490 o         1 MOL     -0.618350
     97 C32        -0.5220    2.2960    4.5200 c3        1 MOL      0.054176
     98 C33        -1.7890    1.3440    4.5860 c3        1 MOL     -0.342678
     99 C34         0.5480    1.5460    5.3650 c3        1 MOL     -0.342678
    100 H41         1.4510    3.9060    3.5650 hn        1 MOL      0.337146
    101 H42         0.1370    1.3780    2.7710 h1        1 MOL      0.103262
    102 H43        -0.6710    3.3130    4.8820 hc        1 MOL      0.022754
    103 H44        -1.5660    0.4120    4.0690 hc        1 MOL      0.092379
    104 H45        -2.0660    1.0420    5.5920 hc        1 MOL      0.092379
    105 H46        -2.5750    1.8120    3.9850 hc        1 MOL      0.092379
    106 H47         1.4240    2.1630    5.5400 hc        1 MOL      0.092379
    107 H48         0.0710    1.3310    6.3180 hc        1 MOL      0.092379
    108 H49         0.8450    0.5530    5.0040 hc        1 MOL      0.092379
    109 N10        -1.9560    2.1440    1.5090 n         1 MOL     -0.112086
    110 C35        -3.0920    2.6460    0.6290 c3        1 MOL      0.101707
    111 C36        -4.3890    2.0850    1.0690 c         1 MOL      0.342608
    112 O17        -4.4380    1.2210    1.9650 o         1 MOL     -0.426753
    113 C37        -2.8430    2.6400   -0.8170 c3        1 MOL     -0.099686
    114 C38        -3.1040    1.3010   -1.4710 c         1 MOL      0.591254
    115 N11        -2.6150    0.2010   -0.9300 n         1 MOL     -0.632835
    116 O18        -3.9050    1.1640   -2.3880 o         1 MOL     -0.536539
    117 H50        -1.7720    1.1560    1.5960 hn        1 MOL     -0.004707
    118 H51        -3.1970    3.6850    0.9540 h1        1 MOL      0.030346
    119 H52        -1.7820    2.8300   -0.9420 hc        1 MOL      0.050545
    120 H53        -3.4070    3.4170   -1.3340 hc        1 MOL      0.050545
    121 H54        -1.8790    0.1340   -0.2470 hn        1 MOL      0.323357
    122 H55        -3.0470   -0.6730   -1.1970 hn        1 MOL      0.323357
    123 N12        -5.4970    2.4700    0.4020 n         1 MOL     -0.235438
    124 C39        -6.7490    1.9670    0.8400 c3        1 MOL      0.065889
    125 C40        -6.8870    0.4150    0.6460 c         1 MOL      0.447755
    126 O19        -7.6020   -0.1890    1.4390 o         1 MOL     -0.588171
    127 C41        -7.7600    2.7100   -0.0560 c3        1 MOL     -0.401085
    128 C42        -7.5260    2.9310   -1.5020 ca        1 MOL      0.180020
    129 C43        -7.8680    1.9880   -2.4600 ca        1 MOL     -0.186059
    130 C44        -6.8610    4.0820   -1.9620 ca        1 MOL     -0.186059
    131 C45        -7.6370    2.2290   -3.8550 ca        1 MOL     -0.308775
    132 C46        -6.5490    4.2870   -3.3090 ca        1 MOL     -0.308775
    133 C47        -6.9570    3.3950   -4.3030 ca        1 MOL      0.381316
    134 O20        -6.5110    3.6000   -5.5970 oh        1 MOL     -0.538684
    135 H56        -5.4260    3.0480   -0.4230 hn        1 MOL      0.165201
    136 H57        -6.8300    2.1630    1.9130 h1        1 MOL      0.094020
    137 H58        -7.8610    3.7430    0.3030 hc        1 MOL      0.113249
    138 H59        -8.7170    2.1970   -0.0360 hc        1 MOL      0.113249
    139 H60        -8.3690    1.0690   -2.1760 ha        1 MOL      0.136932
    140 H61        -6.2530    4.6690   -1.2900 ha        1 MOL      0.136932
    141 H62        -7.7700    1.4540   -4.6050 ha        1 MOL      0.171688
    142 H63        -5.7440    4.9470   -3.5840 ha        1 MOL      0.171688
    143 H64        -6.6970    2.8180   -6.1280 ho        1 MOL      0.419391
    144 N13        -6.1330   -0.2630   -0.2040 n         1 MOL     -0.122982
    145 C48        -6.0430   -1.6860   -0.4870 c3        1 MOL     -0.032306
    146 C49        -5.2090   -2.4000    0.5660 c         1 MOL      0.435338
    147 O21        -4.8310   -3.6060    0.4830 o         1 MOL     -0.547490
    148 C50        -5.5660   -2.0400   -1.9180 c3        1 MOL     -0.191106
    149 C51        -6.0890   -1.1150   -3.0180 c3        1 MOL     -0.440080
    150 C52        -5.8470   -1.7240   -4.4030 c         1 MOL      0.775275
    151 O22        -6.4660   -2.7740   -4.7590 o         1 MOL     -0.740843
    152 O23        -5.1260   -1.1500   -5.2370 o         1 MOL     -0.740843
    153 H65        -5.5710    0.3060   -0.8050 hn        1 MOL      0.222830
    154 H66        -7.0530   -2.0630   -0.3200 h1        1 MOL      0.094557
    155 H67        -5.8110   -3.0820   -2.1210 hc        1 MOL      0.124436
    156 H68        -4.4920   -1.8890   -1.9630 hc        1 MOL      0.124436
    157 H69        -5.5910   -0.1570   -2.8630 hc        1 MOL      0.132365
    158 H70        -7.1350   -0.8630   -2.8240 hc        1 MOL      0.132365
    159 N14        -4.7000   -1.7030    1.5960 n         1 MOL     -0.293265
    160 C53        -3.7480   -2.2170    2.6040 c3        1 MOL     -0.097817
    161 C54        -4.3160   -2.0110    4.0560 c         1 MOL      0.478534
    162 O24        -3.7230   -2.5250    4.9880 o         1 MOL     -0.551037
    163 C55        -2.2900   -1.7540    2.4270 c3        1 MOL     -0.032005
    164 C56        -1.6430   -2.2000    1.1530 c3        1 MOL     -0.062603
    165 C57        -0.3890   -1.3690    0.8130 c         1 MOL      0.842843
    166 O25        -0.3930   -0.1340    1.0700 o         1 MOL     -0.815099
    167 O26         0.5500   -1.8390    0.1340 o         1 MOL     -0.815099
    168 H71        -4.7700   -0.6990    1.5200 hn        1 MOL      0.001885
    169 H72        -3.7040   -3.3080    2.5140 h1        1 MOL      0.137158
    170 H73        -1.5760   -2.0800    3.1980 hc        1 MOL      0.092426
    171 H74        -2.2140   -0.6730    2.4400 hc        1 MOL      0.092426
    172 H75        -2.2660   -2.0700    0.2650 hc        1 MOL      0.027123
    173 H76        -1.3020   -3.2290    1.2060 hc        1 MOL      0.027123
    174 N15        -5.4640   -1.3560    4.1920 n         1 MOL     -0.301453
    175 C58        -6.0640   -0.9770    5.5730 c3        1 MOL      0.028117
    176 H77        -7.0450   -1.4400    5.6810 h1        1 MOL      0.029729
    177 H78        -5.4060   -1.3320    6.3650 h1        1 MOL      0.029729
    178 H79        -6.1640    0.1060    5.6410 h1        1 MOL      0.029729
    179 H80        -5.8990   -0.8950    3.4080 hn        1 MOL      0.270280
    180 Ca1         2.2470   -0.0490    0.0340 Ca        1 MOL      1.804187
    181 O27         4.9180    0.0140    1.0410 oh        1 MOL     -0.891957
    182 H81         4.9990   -0.9040    0.7930 ho        1 MOL      0.431677
    183 H82         5.4520    0.0880    1.8280 ho        1 MOL      0.431677
    184 O28         2.4870   -0.4250    2.7320 oh        1 MOL     -0.891957
    185 H83         3.1980   -0.4360    3.3750 ho        1 MOL      0.431677
    186 H84         1.7040   -0.6880    3.2320 ho        1 MOL      0.431677
    187 O29         0.7080    1.2350   -1.8210 oh        1 MOL     -0.891957
    188 H85         0.2270    0.8790   -2.5700 ho        1 MOL      0.431677
    189 H86         1.3120    1.8610   -2.1990 ho        1 MOL      0.431677
@<TRIPOS>BOND
     1    1    2 1   
     2    1    4 1   
     3    1    5 1   
     4    1    6 1   
     5    2    3 2   
     6    2    7 1   
     7    7    8 1   
     8    7   15 1   
     9    8    9 1   
    10    8   11 1   
    11    8   16 1   
    12    9   10 2   
    13    9   19 1   
    14   11   12 1   
    15   11   17 1   
    16   11   18 1   
    17   12   13 1   
    18   12   14 1   
    19   19   20 1   
    20   19   27 1   
    21   20   21 1   
    22   20   23 1   
    23   20   28 1   
    24   21   22 2   
    25   21   38 1   
    26   23   24 1   
    27   23   25 1   
    28   23   29 1   
    29   24   26 1   
    30   24   30 1   
    31   24   31 1   
    32   25   32 1   
    33   25   33 1   
    34   25   34 1   
    35   26   35 1   
    36   26   36 1   
    37   26   37 1   
    38   38   39 1   
    39   38   46 1   
    40   39   40 1   
    41   39   42 1   
    42   39   47 1   
    43   40   41 2   
    44   40   50 1   
    45   42   43 1   
    46   42   48 1   
    47   42   49 1   
    48   43   44 1   
    49   43   45 1   
    50   50   51 1   
    51   50   54 1   
    52   51   52 1   
    53   51   55 1   
    54   51   56 1   
    55   52   53 2   
    56   52   57 1   
    57   57   58 1   
    58   57   65 1   
    59   58   59 1   
    60   58   61 1   
    61   58   66 1   
    62   59   60 2   
    63   59   69 1   
    64   61   62 1   
    65   61   67 1   
    66   61   68 1   
    67   62   63 1   
    68   62   64 1   
    69   69   70 1   
    70   69   73 1   
    71   70   71 1   
    72   70   74 1   
    73   70   75 1   
    74   71   72 2   
    75   71   76 1   
    76   76   77 1   
    77   76   85 1   
    78   77   78 1   
    79   77   80 1   
    80   77   86 1   
    81   78   79 2   
    82   78   93 1   
    83   80   81 1   
    84   80   87 1   
    85   80   88 1   
    86   81   82 1   
    87   81   89 1   
    88   81   90 1   
    89   82   83 1   
    90   82   84 2   
    91   83   91 1   
    92   83   92 1   
    93   93   94 1   
    94   93  100 1   
    95   94   95 1   
    96   94   97 1   
    97   94  101 1   
    98   95   96 2   
    99   95  109 1   
   100   97   98 1   
   101   97   99 1   
   102   97  102 1   
   103   98  103 1   
   104   98  104 1   
   105   98  105 1   
   106   99  106 1   
   107   99  107 1   
   108   99  108 1   
   109  109  110 1   
   110  109  117 1   
   111  110  111 1   
   112  110  113 1   
   113  110  118 1   
   114  111  112 2   
   115  111  123 1   
   116  113  114 1   
   117  113  119 1   
   118  113  120 1   
   119  114  115 1   
   120  114  116 2   
   121  115  121 1   
   122  115  122 1   
   123  123  124 1   
   124  123  135 1   
   125  124  125 1   
   126  124  127 1   
   127  124  136 1   
   128  125  126 2   
   129  125  144 1   
   130  127  128 1   
   131  127  137 1   
   132  127  138 1   
   133  128  129 ar  
   134  128  130 ar  
   135  129  131 ar  
   136  129  139 1   
   137  130  132 ar  
   138  130  140 1   
   139  131  133 ar  
   140  131  141 1   
   141  132  133 ar  
   142  132  142 1   
   143  133  134 1   
   144  134  143 1   
   145  144  145 1   
   146  144  153 1   
   147  145  146 1   
   148  145  148 1   
   149  145  154 1   
   150  146  147 2   
   151  146  159 1   
   152  148  149 1   
   153  148  155 1   
   154  148  156 1   
   155  149  150 1   
   156  149  157 1   
   157  149  158 1   
   158  150  151 1   
   159  150  152 1   
   160  159  160 1   
   161  159  168 1   
   162  160  161 1   
   163  160  163 1   
   164  160  169 1   
   165  161  162 2   
   166  161  174 1   
   167  163  164 1   
   168  163  170 1   
   169  163  171 1   
   170  164  165 1   
   171  164  172 1   
   172  164  173 1   
   173  165  166 1   
   174  165  167 1   
   175  174  175 1   
   176  174  179 1   
   177  175  176 1   
   178  175  177 1   
   179  175  178 1   
   180  181  182 1   
   181  181  183 1   
   182  184  185 1   
   183  184  186 1   
   184  187  188 1   
   185  187  189 1   
@<TRIPOS>SUBSTRUCTURE
     1 MOL         1 TEMP              0 ****  ****    0 ROOT
