@<TRIPOS>MOLECULE
MOL
  175   173     1     0     0
SMALL
resp


@<TRIPOS>ATOM
      1 C1         -1.1360    3.4410    5.8610 c3        1 MOL     -0.351706
      2 C2         -1.3740    3.1140    4.3450 c         1 MOL      0.750528
      3 O1         -0.4160    3.1980    3.5420 o         1 MOL     -0.607863
      4 H1         -1.2270    2.5270    6.4480 hc        1 MOL      0.084349
      5 H2         -0.1360    3.8560    5.9920 hc        1 MOL      0.084349
      6 H3         -1.8780    4.1640    6.1990 hc        1 MOL      0.084349
      7 N1         -2.6300    2.7900    3.9360 n         1 MOL     -0.703159
      8 C3         -2.9330    2.4410    2.5850 c3        1 MOL      0.422448
      9 C4         -3.3160    3.6320    1.7080 c         1 MOL      0.513596
     10 O2         -4.2290    4.3270    2.0300 o         1 MOL     -0.606539
     11 C5         -4.0350    1.3690    2.6410 c3        1 MOL     -0.064575
     12 C6         -4.4440    0.7490    1.3100 c         1 MOL      0.780262
     13 O3         -5.5000   -0.0130    1.2480 o         1 MOL     -0.765505
     14 O4         -4.0570    1.2510    0.2470 o         1 MOL     -0.765505
     15 H4         -3.4020    2.8920    4.5750 hn        1 MOL      0.319452
     16 H5         -2.0810    1.8880    2.1770 h1        1 MOL     -0.107040
     17 H6         -4.9030    1.8390    3.1050 hc        1 MOL     -0.006677
     18 H7         -3.7210    0.5560    3.2950 hc        1 MOL     -0.006677
     19 N2         -2.6230    3.9320    0.6080 n         1 MOL     -0.291359
     20 C7         -2.8610    5.1510   -0.2250 c3        1 MOL      0.079055
     21 C8         -4.0740    5.0510   -1.3010 c         1 MOL      0.610192
     22 O5         -4.4450    6.0080   -1.9650 o         1 MOL     -0.565565
     23 C9         -1.5480    5.7420   -0.8260 c3        1 MOL     -0.250866
     24 H8         -1.9440    3.2520    0.2860 hn        1 MOL      0.159185
     25 H9         -3.2430    5.8250    0.5340 h1        1 MOL      0.050018
     26 H10        -0.9670    4.9870   -1.3390 hc        1 MOL      0.072866
     27 H11        -1.7770    6.5110   -1.5640 hc        1 MOL      0.072866
     28 H12        -1.0140    6.2770   -0.0310 hc        1 MOL      0.072866
     29 N3         -4.6480    3.8050   -1.4270 n         1 MOL     -0.642052
     30 C10        -5.5960    3.4830   -2.5180 c3        1 MOL      0.283110
     31 C11        -6.8520    2.7220   -1.9930 c         1 MOL      0.432375
     32 O6         -7.8820    2.9090   -2.5380 o         1 MOL     -0.559025
     33 C12        -4.9510    2.7910   -3.6770 c3        1 MOL     -0.262107
     34 C13        -4.0330    1.6600   -3.2500 c         1 MOL      0.748826
     35 O7         -2.8410    1.8400   -3.1240 o         1 MOL     -0.723140
     36 O8         -4.5140    0.6050   -2.8220 o         1 MOL     -0.723140
     37 H13        -4.1100    3.0380   -1.0350 hn        1 MOL      0.334612
     38 H14        -6.0060    4.4520   -2.8170 h1        1 MOL      0.046046
     39 H15        -4.4510    3.4800   -4.3470 hc        1 MOL      0.044990
     40 H16        -5.7930    2.3670   -4.2250 hc        1 MOL      0.044990
     41 N4         -6.8200    1.9330   -0.9080 n         1 MOL     -0.176673
     42 C14        -7.9110    1.1400   -0.3170 c3        1 MOL     -0.420718
     43 C15        -7.9260   -0.3030   -0.6940 c         1 MOL      0.694594
     44 O9         -8.9010   -0.9690   -0.3250 o         1 MOL     -0.643894
     45 H17        -5.9910    1.8240   -0.3590 hn        1 MOL      0.216234
     46 H18        -8.8550    1.5530   -0.6570 h1        1 MOL      0.172710
     47 H19        -7.7160    1.1710    0.7490 h1        1 MOL      0.172710
     48 N5         -6.8970   -0.8750   -1.3770 n         1 MOL     -0.327281
     49 C16        -6.8450   -2.2890   -1.6940 c3        1 MOL     -0.131834
     50 C17        -6.6970   -3.2370   -0.5210 c         1 MOL      0.570441
     51 O10        -6.7280   -4.3970   -0.7840 o         1 MOL     -0.584903
     52 C18        -5.8170   -2.6580   -2.7620 c3        1 MOL     -0.078575
     53 C19        -4.3290   -2.3730   -2.5040 c         1 MOL      0.546707
     54 N6         -3.4780   -2.7690   -3.3870 n         1 MOL     -0.762931
     55 O11        -3.9600   -1.8540   -1.4430 o         1 MOL     -0.386236
     56 H20        -6.1430   -0.2720   -1.6730 hn        1 MOL      0.199066
     57 H21        -7.8070   -2.4870   -2.1640 h1        1 MOL      0.111207
     58 H22        -5.8900   -2.1080   -3.7040 hc        1 MOL      0.046669
     59 H23        -6.0060   -3.6860   -3.0680 hc        1 MOL      0.046669
     60 H24        -3.7950   -3.1620   -4.2650 hn        1 MOL      0.346624
     61 H25        -2.5030   -2.5990   -3.2100 hn        1 MOL      0.346624
     62 N7         -6.5480   -2.7220    0.6980 n         1 MOL     -0.226881
     63 C20        -6.4780   -3.5300    2.0040 c3        1 MOL     -0.334860
     64 C21        -5.0540   -3.9670    2.3210 c         1 MOL      0.599576
     65 O12        -4.8230   -4.5750    3.3620 o         1 MOL     -0.573996
     66 H26        -6.3830   -1.7360    0.8280 hn        1 MOL      0.302953
     67 H27        -7.0530   -4.4200    1.7780 h1        1 MOL      0.152728
     68 H28        -6.9480   -2.9480    2.7960 h1        1 MOL      0.152728
     69 N8         -4.0710   -3.5570    1.5140 n         1 MOL     -0.200764
     70 C22        -2.6190   -3.9130    1.7310 c3        1 MOL     -0.041583
     71 C23        -1.7370   -2.6510    1.6020 c         1 MOL      0.572259
     72 O13        -2.1260   -1.5750    1.0420 o         1 MOL     -0.611612
     73 C24        -1.9840   -5.0970    0.9010 c3        1 MOL      0.404290
     74 C25        -2.8090   -6.3680    1.0510 c3        1 MOL     -0.428639
     75 O14        -1.8650   -4.7180   -0.4280 oh        1 MOL     -0.651306
     76 H29        -4.2610   -2.9530    0.7310 hn        1 MOL      0.065342
     77 H30        -2.5750   -4.2750    2.7610 h1        1 MOL      0.054407
     78 H31        -0.9730   -5.3160    1.2340 h1        1 MOL      0.011796
     79 H32        -2.1350   -5.4490   -0.9890 ho        1 MOL      0.409668
     80 H33        -3.7760   -6.3670    0.5450 hc        1 MOL      0.109516
     81 H34        -2.2770   -7.2510    0.6910 hc        1 MOL      0.109516
     82 H35        -3.0810   -6.4290    2.1000 hc        1 MOL      0.109516
     83 N9         -0.4740   -2.7600    2.0350 n         1 MOL     -0.370086
     84 C26         0.5850   -1.8670    1.7080 c3        1 MOL     -0.023161
     85 C27         1.7370   -2.5440    0.9080 c         1 MOL      0.499137
     86 O15         2.2440   -3.6280    1.2680 o         1 MOL     -0.580270
     87 C28         1.2290   -1.1470    2.9830 c3        1 MOL      0.253121
     88 C29         1.7750   -2.1400    4.0600 c3        1 MOL     -0.037766
     89 C30         0.2060   -0.1980    3.5230 c3        1 MOL     -0.413019
     90 C31         2.2270   -1.6090    5.3820 c3        1 MOL     -0.032512
     91 H36        -0.2810   -3.6070    2.5590 hn        1 MOL      0.229452
     92 H37         0.2530   -1.0810    1.0230 h1        1 MOL     -0.011528
     93 H38         2.0940   -0.6360    2.5650 hc        1 MOL     -0.107107
     94 H39         2.5810   -2.7320    3.6280 hc        1 MOL      0.013658
     95 H40         0.9660   -2.8490    4.2410 hc        1 MOL      0.013658
     96 H41        -0.8010   -0.5990    3.6580 hc        1 MOL      0.111040
     97 H42         0.6280    0.2700    4.4070 hc        1 MOL      0.111040
     98 H43         0.0880    0.6870    2.8920 hc        1 MOL      0.111040
     99 H44         2.5800   -2.3930    6.0530 hc        1 MOL      0.002160
    100 H45         3.0750   -0.9270    5.3060 hc        1 MOL      0.002160
    101 H46         1.3490   -1.3010    5.9550 hc        1 MOL      0.002160
    102 N10         2.2480   -1.8760   -0.1120 n         1 MOL     -0.416254
    103 C32         3.4530   -2.2470   -0.8880 c3        1 MOL      0.193159
    104 C33         4.7650   -1.6530   -0.3540 c         1 MOL      0.383909
    105 O16         4.7320   -0.8030    0.5470 o         1 MOL     -0.324560
    106 C34         3.2640   -1.7260   -2.3070 c3        1 MOL     -0.196992
    107 C35         4.1620   -2.1870   -3.4800 c         1 MOL      0.651679
    108 O17         3.9570   -1.6760   -4.6240 o         1 MOL     -0.682375
    109 O18         5.0830   -2.9790   -3.2120 o         1 MOL     -0.682375
    110 H47         1.7700   -1.0190   -0.3720 hn        1 MOL      0.309804
    111 H48         3.5930   -3.3250   -0.9360 h1        1 MOL      0.055796
    112 H49         3.2840   -0.6520   -2.1810 hc        1 MOL      0.025280
    113 H50         2.2450   -1.9530   -2.6100 hc        1 MOL      0.025280
    114 N11         5.9430   -1.9500   -0.8770 n         1 MOL     -0.575745
    115 C36         7.2980   -1.4400   -0.3770 c3        1 MOL      0.284916
    116 C37         7.4110    0.0980   -0.3050 c         1 MOL      0.395775
    117 O19         7.8880    0.5090    0.7600 o         1 MOL     -0.517349
    118 C38         8.4130   -2.1180   -1.2390 c3        1 MOL     -0.078580
    119 C39         9.7540   -1.4420   -1.0650 ca        1 MOL     -0.006454
    120 C40        10.3910   -1.4200    0.2220 ca        1 MOL     -0.129057
    121 C41        10.3880   -0.7900   -2.1510 ca        1 MOL     -0.129057
    122 C42        11.6720   -0.8050    0.3930 ca        1 MOL     -0.133130
    123 C43        11.6560   -0.1700   -1.9710 ca        1 MOL     -0.133130
    124 C44        12.3080   -0.2210   -0.7310 ca        1 MOL     -0.107373
    125 H51         5.8960   -2.4630   -1.7470 hn        1 MOL      0.284433
    126 H52         7.4740   -1.8430    0.6170 h1        1 MOL      0.038526
    127 H53         8.0110   -2.1020   -2.2450 hc        1 MOL      0.051815
    128 H54         8.5310   -3.1820   -1.0110 hc        1 MOL      0.051815
    129 H55         9.8040   -1.7490    1.0560 ha        1 MOL      0.110377
    130 H56         9.9390   -0.7530   -3.1300 ha        1 MOL      0.110377
    131 H57        12.1810   -0.7490    1.3400 ha        1 MOL      0.113858
    132 H58        12.0730    0.4950   -2.7230 ha        1 MOL      0.113858
    133 H59        13.3060    0.1760   -0.5930 ha        1 MOL      0.092784
    134 N12         6.9790    0.9480   -1.2360 n         1 MOL     -0.007503
    135 C45         6.8910    2.3610   -0.9050 c3        1 MOL      0.017999
    136 C46         5.8310    2.8400    0.1100 c         1 MOL      0.324798
    137 O20         6.0350    3.7440    0.8650 o         1 MOL     -0.467505
    138 C47         6.6360    3.0460   -2.2450 c3        1 MOL     -0.059040
    139 C48         7.1600    2.0760   -3.2720 c3        1 MOL     -0.016121
    140 C49         6.8200    0.7050   -2.6510 c3        1 MOL     -0.103233
    141 H60         7.8490    2.6670   -0.4890 h1        1 MOL      0.050228
    142 H61         5.5550    3.0020   -2.4230 hc        1 MOL      0.046800
    143 H62         7.0280    4.0440   -2.4060 hc        1 MOL      0.046800
    144 H63         6.7120    2.2590   -4.2460 hc        1 MOL      0.012946
    145 H64         8.2490    2.0430   -3.3020 hc        1 MOL      0.012946
    146 H65         5.7950    0.4250   -2.8780 h1        1 MOL      0.081567
    147 H66         7.5490    0.1020   -3.1920 h1        1 MOL      0.081567
    148 N13         4.6030    2.1910    0.1980 n         1 MOL     -0.332080
    149 C50         3.6250    2.4150    1.2890 c3        1 MOL     -0.071139
    150 C51         4.1010    1.9470    2.7100 c         1 MOL      0.418531
    151 O21         3.8790    2.6070    3.7330 o         1 MOL     -0.564963
    152 C52         2.2900    1.7750    0.9050 c3        1 MOL     -0.123290
    153 C53         1.5270    2.4140   -0.3280 c3        1 MOL      0.019577
    154 C54         0.2850    1.6250   -0.5280 c         1 MOL      0.775649
    155 O22         0.3920    0.5720   -1.1360 o         1 MOL     -0.751116
    156 O23        -0.8650    1.9620   -0.1860 o         1 MOL     -0.751116
    157 H67         4.5600    1.3510   -0.3670 hn        1 MOL      0.236101
    158 H68         3.5030    3.4930    1.4120 h1        1 MOL      0.125701
    159 H69         1.5740    1.7060    1.7280 hc        1 MOL      0.123730
    160 H70         2.5570    0.7410    0.6560 hc        1 MOL      0.123730
    161 H71         2.1140    2.2680   -1.2390 hc        1 MOL     -0.014258
    162 H72         1.3240    3.4890   -0.2740 hc        1 MOL     -0.014258
    163 N14         4.9500    0.9150    2.7770 n         1 MOL      0.164215
    164 C55         5.6550    0.5330    3.9970 c3        1 MOL     -0.247889
    165 H73         5.8150   -0.5460    4.0010 h1        1 MOL      0.082023
    166 H74         6.6180    1.0420    4.0350 h1        1 MOL      0.082023
    167 H75         5.0590    0.8140    4.8650 h1        1 MOL      0.082023
    168 H76         5.1070    0.2890    2.0040 hn        1 MOL     -0.068544
    169 Ca1        -2.2430    0.0850   -1.1570 Ca        1 MOL      1.731862
    170 O24        -1.3640   -0.4380   -3.7000 oh        1 MOL     -0.806152
    171 H77        -1.6380    0.0570   -4.4770 ho        1 MOL      0.394666
    172 H78        -0.8220   -1.1420   -4.0360 ho        1 MOL      0.394666
    173 O25        -1.0130   -2.3990   -1.6230 oh        1 MOL     -0.806152
    174 H79        -0.2730   -2.6720   -2.1580 ho        1 MOL      0.394666
    175 H80        -1.3110   -3.1990   -1.1920 ho        1 MOL      0.394666
@<TRIPOS>BOND
     1    1    2 1   
     2    1    4 1   
     3    1    5 1   
     4    1    6 1   
     5    2    3 2   
     6    2    7 1   
     7    7    8 1   
     8    7   15 1   
     9    8    9 1   
    10    8   11 1   
    11    8   16 1   
    12    9   10 2   
    13    9   19 1   
    14   11   12 1   
    15   11   17 1   
    16   11   18 1   
    17   12   13 1   
    18   12   14 1   
    19   19   20 1   
    20   19   24 1   
    21   20   21 1   
    22   20   23 1   
    23   20   25 1   
    24   21   22 2   
    25   21   29 1   
    26   23   26 1   
    27   23   27 1   
    28   23   28 1   
    29   29   30 1   
    30   29   37 1   
    31   30   31 1   
    32   30   33 1   
    33   30   38 1   
    34   31   32 2   
    35   31   41 1   
    36   33   34 1   
    37   33   39 1   
    38   33   40 1   
    39   34   35 1   
    40   34   36 1   
    41   41   42 1   
    42   41   45 1   
    43   42   43 1   
    44   42   46 1   
    45   42   47 1   
    46   43   44 2   
    47   43   48 1   
    48   48   49 1   
    49   48   56 1   
    50   49   50 1   
    51   49   52 1   
    52   49   57 1   
    53   50   51 2   
    54   50   62 1   
    55   52   53 1   
    56   52   58 1   
    57   52   59 1   
    58   53   54 1   
    59   53   55 2   
    60   54   60 1   
    61   54   61 1   
    62   62   63 1   
    63   62   66 1   
    64   63   64 1   
    65   63   67 1   
    66   63   68 1   
    67   64   65 2   
    68   64   69 1   
    69   69   70 1   
    70   69   76 1   
    71   70   71 1   
    72   70   73 1   
    73   70   77 1   
    74   71   72 2   
    75   71   83 1   
    76   73   74 1   
    77   73   75 1   
    78   73   78 1   
    79   74   80 1   
    80   74   81 1   
    81   74   82 1   
    82   75   79 1   
    83   83   84 1   
    84   83   91 1   
    85   84   85 1   
    86   84   87 1   
    87   84   92 1   
    88   85   86 2   
    89   85  102 1   
    90   87   88 1   
    91   87   89 1   
    92   87   93 1   
    93   88   90 1   
    94   88   94 1   
    95   88   95 1   
    96   89   96 1   
    97   89   97 1   
    98   89   98 1   
    99   90   99 1   
   100   90  100 1   
   101   90  101 1   
   102  102  103 1   
   103  102  110 1   
   104  103  104 1   
   105  103  106 1   
   106  103  111 1   
   107  104  105 2   
   108  104  114 1   
   109  106  107 1   
   110  106  112 1   
   111  106  113 1   
   112  107  108 1   
   113  107  109 1   
   114  114  115 1   
   115  114  125 1   
   116  115  116 1   
   117  115  118 1   
   118  115  126 1   
   119  116  117 2   
   120  116  134 1   
   121  118  119 1   
   122  118  127 1   
   123  118  128 1   
   124  119  120 ar  
   125  119  121 ar  
   126  120  122 ar  
   127  120  129 1   
   128  121  123 ar  
   129  121  130 1   
   130  122  124 ar  
   131  122  131 1   
   132  123  124 ar  
   133  123  132 1   
   134  124  133 1   
   135  134  135 1   
   136  134  140 1   
   137  135  136 1   
   138  135  138 1   
   139  135  141 1   
   140  136  137 2   
   141  136  148 1   
   142  138  139 1   
   143  138  142 1   
   144  138  143 1   
   145  139  140 1   
   146  139  144 1   
   147  139  145 1   
   148  140  146 1   
   149  140  147 1   
   150  148  149 1   
   151  148  157 1   
   152  149  150 1   
   153  149  152 1   
   154  149  158 1   
   155  150  151 2   
   156  150  163 1   
   157  152  153 1   
   158  152  159 1   
   159  152  160 1   
   160  153  154 1   
   161  153  161 1   
   162  153  162 1   
   163  154  155 1   
   164  154  156 1   
   165  163  164 1   
   166  163  168 1   
   167  164  165 1   
   168  164  166 1   
   169  164  167 1   
   170  170  171 1   
   171  170  172 1   
   172  173  174 1   
   173  173  175 1   
@<TRIPOS>SUBSTRUCTURE
     1 MOL         1 TEMP              0 ****  ****    0 ROOT
