@<TRIPOS>MOLECULE
MOL
  172   171     1     0     0
SMALL
resp


@<TRIPOS>ATOM
      1 C1         -0.2130   -3.2960    5.8660 c3        1 MOL     -0.378574
      2 C2          0.4250   -3.4870    4.4740 c         1 MOL      0.684738
      3 O1         -0.2550   -3.9770    3.5570 o         1 MOL     -0.536148
      4 H1         -0.1030   -2.2570    6.1760 hc        1 MOL      0.095115
      5 H2         -1.2720   -3.5510    5.8180 hc        1 MOL      0.095115
      6 H3          0.2850   -3.9440    6.5870 hc        1 MOL      0.095115
      7 N1          1.7020   -3.1010    4.2670 n         1 MOL     -0.599020
      8 C3          2.4030   -2.9770    2.9750 c3        1 MOL      0.265769
      9 C4          2.6670   -4.3300    2.2250 c         1 MOL      0.517302
     10 O2          2.9150   -5.3670    2.8840 o         1 MOL     -0.563854
     11 C5          3.7340   -2.2550    3.1690 c3        1 MOL     -0.469935
     12 C6          4.5360   -1.9460    1.9050 c         1 MOL      0.753766
     13 O3          5.7690   -1.9720    1.9570 o         1 MOL     -0.633701
     14 O4          3.9510   -1.6220    0.8310 o         1 MOL     -0.633701
     15 H4          2.0980   -2.6090    5.0650 hn        1 MOL      0.302925
     16 H5          1.8240   -2.3480    2.2850 h1        1 MOL      0.018447
     17 H6          4.3260   -2.9340    3.7830 hc        1 MOL      0.097309
     18 H7          3.4980   -1.3130    3.6650 hc        1 MOL      0.097309
     19 N2          2.5520   -4.3660    0.8820 n         1 MOL     -0.399940
     20 C7          2.7280   -5.4640   -0.0650 c3        1 MOL      0.392163
     21 C8          3.8130   -5.1400   -1.1230 c         1 MOL      0.324436
     22 O5          4.4060   -6.1370   -1.6360 o         1 MOL     -0.580806
     23 C9          1.3550   -5.7390   -0.6850 c3        1 MOL     -0.361612
     24 H8          2.3370   -3.5090    0.3960 hn        1 MOL      0.176609
     25 H9          3.1480   -6.2970    0.5000 h1        1 MOL     -0.004485
     26 H10         0.8280   -6.5330   -0.1600 hc        1 MOL      0.086627
     27 H11         0.7170   -4.8600   -0.6360 hc        1 MOL      0.086627
     28 H12         1.5790   -6.0480   -1.7120 hc        1 MOL      0.086627
     29 N3          4.2080   -3.9090   -1.4010 n         1 MOL     -0.120699
     30 C10         5.0700   -3.5760   -2.5350 c3        1 MOL      0.123874
     31 C11         6.3970   -2.8890   -2.1360 c         1 MOL      0.272905
     32 O6          7.2600   -2.6440   -3.0050 o         1 MOL     -0.527083
     33 C12         4.2250   -2.7070   -3.4960 c3        1 MOL     -0.166093
     34 C13         3.4750   -1.6140   -2.7200 c         1 MOL      0.674493
     35 O7          2.1870   -1.6130   -2.7050 o         1 MOL     -0.704661
     36 O8          4.0900   -0.7300   -2.0960 o         1 MOL     -0.704661
     37 H13         3.8830   -3.1540   -0.8110 hn        1 MOL      0.121693
     38 H14         5.3630   -4.4820   -3.0580 h1        1 MOL      0.070707
     39 H15         3.5100   -3.2840   -4.0860 hc        1 MOL      0.041032
     40 H16         4.9650   -2.2950   -4.1740 hc        1 MOL      0.041032
     41 N4          6.4520   -2.3160   -0.9180 n         1 MOL     -0.041602
     42 C14         7.4920   -1.3070   -0.6140 c3        1 MOL     -0.322835
     43 C15         7.3430    0.2260   -0.7770 c         1 MOL      0.573048
     44 O9          8.2100    1.0120   -0.3430 o         1 MOL     -0.631740
     45 H17         5.7730   -2.5680   -0.2160 hn        1 MOL      0.081615
     46 H18         8.4500   -1.5840   -1.0540 h1        1 MOL      0.138439
     47 H19         7.5370   -1.5000    0.4620 h1        1 MOL      0.138439
     48 N5          6.2630    0.7560   -1.3810 n         1 MOL     -0.256405
     49 C16         6.1270    2.1080   -1.9410 c3        1 MOL     -0.035185
     50 C17         6.1110    3.2520   -0.9180 c         1 MOL      0.457870
     51 O10         6.1100    4.3960   -1.3250 o         1 MOL     -0.553224
     52 C18         5.0820    2.1180   -3.0750 c3        1 MOL     -0.024602
     53 C19         3.6240    2.1480   -2.7140 c         1 MOL      0.691776
     54 N6          2.7380    2.0280   -3.6400 n         1 MOL     -0.694704
     55 O11         3.2450    2.3590   -1.5700 o         1 MOL     -0.654506
     56 H20         5.4870    0.1250   -1.4980 hn        1 MOL      0.236338
     57 H21         7.0130    2.1870   -2.5870 h1        1 MOL      0.088922
     58 H22         5.1430    1.2680   -3.7660 hc        1 MOL      0.017620
     59 H23         5.2300    2.9890   -3.7090 hc        1 MOL      0.017620
     60 H24         2.9850    1.7720   -4.5820 hn        1 MOL      0.340508
     61 H25         1.7930    1.8840   -3.3120 hn        1 MOL      0.340508
     62 N7          5.9890    3.0390    0.3930 n         1 MOL     -0.127804
     63 C20         6.0670    4.0540    1.4780 c3        1 MOL     -0.391755
     64 C21         4.6430    4.7100    1.6160 c         1 MOL      0.578651
     65 O12         4.5640    5.6060    2.4820 o         1 MOL     -0.559086
     66 H26         6.0700    2.0760    0.6870 hn        1 MOL      0.248633
     67 H27         6.8000    4.7710    1.1240 h1        1 MOL      0.167887
     68 H28         6.3190    3.6970    2.4710 h1        1 MOL      0.167887
     69 N8          3.5360    4.2540    0.9220 n         1 MOL     -0.301775
     70 C22         2.1680    4.7130    1.0850 c3        1 MOL     -0.338201
     71 C23         1.0960    3.6050    1.1160 c         1 MOL      0.778814
     72 O13         1.2700    2.4860    0.6320 o         1 MOL     -0.574334
     73 C24         1.9190    5.5830   -0.1610 c3        1 MOL      0.467222
     74 C25         2.7750    6.8710   -0.1200 c3        1 MOL     -0.537975
     75 O14         2.1800    4.9970   -1.3870 oh        1 MOL     -0.527212
     76 H29         3.7120    3.5590    0.2080 hn        1 MOL      0.297322
     77 H30         2.0410    5.3350    1.9700 h1        1 MOL      0.130569
     78 H31         0.8570    5.8060   -0.2530 h1        1 MOL     -0.013435
     79 H32         2.1910    4.0630   -1.1840 ho        1 MOL      0.310981
     80 H33         2.7170    7.3130    0.8750 hc        1 MOL      0.135500
     81 H34         3.8080    6.5440   -0.2350 hc        1 MOL      0.135500
     82 H35         2.4520    7.5640   -0.8930 hc        1 MOL      0.135500
     83 N9         -0.0820    3.8850    1.7380 n         1 MOL     -0.717666
     84 C26        -1.2140    3.0130    1.8400 c3        1 MOL     -0.081645
     85 C27        -1.8230    2.9160    0.4100 c         1 MOL      0.743548
     86 O15        -2.2810    3.9480   -0.1320 o         1 MOL     -0.641312
     87 C28        -2.2730    3.3220    2.8890 c3        1 MOL      0.305571
     88 C29        -1.7570    3.9670    4.2340 c3        1 MOL      0.191955
     89 C30        -2.9860    2.0240    3.2760 c3        1 MOL     -0.641595
     90 C31        -2.8560    4.5130    5.1220 c3        1 MOL     -0.191910
     91 H36        -0.0620    4.8160    2.1310 hn        1 MOL      0.320119
     92 H37        -0.8170    2.0320    2.1180 h1        1 MOL      0.094772
     93 H38        -3.0610    3.9590    2.4860 hc        1 MOL     -0.043196
     94 H39        -1.2100    4.8420    3.8720 hc        1 MOL     -0.038619
     95 H40        -1.1330    3.3390    4.8750 hc        1 MOL     -0.038619
     96 H41        -3.7530    2.2660    4.0160 hc        1 MOL      0.144941
     97 H42        -3.4330    1.6220    2.3690 hc        1 MOL      0.144941
     98 H43        -2.2930    1.2710    3.6500 hc        1 MOL      0.144941
     99 H44        -3.3700    3.6530    5.5470 hc        1 MOL      0.031395
    100 H45        -2.4240    5.2750    5.7710 hc        1 MOL      0.031395
    101 H46        -3.5140    5.0280    4.4260 hc        1 MOL      0.031395
    102 N10        -1.7900    1.7710   -0.2240 n         1 MOL     -0.446074
    103 C32        -2.6580    1.5140   -1.4320 c3        1 MOL      0.222888
    104 C33        -4.1080    1.0780   -1.0190 c         1 MOL      0.195200
    105 O16        -4.3810    0.5940    0.0790 o         1 MOL     -0.235234
    106 C34        -2.0500    0.5470   -2.4010 c3        1 MOL     -0.298975
    107 C35        -0.7030    0.9320   -2.9100 c         1 MOL      0.672773
    108 O17        -0.5500    1.3670   -4.0580 o         1 MOL     -0.657378
    109 O18         0.2550    0.7770   -2.0520 o         1 MOL     -0.657378
    110 H47        -1.5720    1.0210    0.4200 hn        1 MOL      0.243321
    111 H48        -2.7670    2.4500   -1.9730 h1        1 MOL      0.071989
    112 H49        -2.7930    0.5880   -3.1960 hc        1 MOL      0.091394
    113 H50        -1.9630   -0.4250   -1.9190 hc        1 MOL      0.091394
    114 N11        -5.0980    1.2750   -1.8570 n         1 MOL     -0.545322
    115 C36        -6.5030    1.0030   -1.4970 c3        1 MOL      0.454184
    116 C37        -6.7200   -0.5180   -1.1080 c         1 MOL      0.206995
    117 O19        -7.3860   -0.7470   -0.0960 o         1 MOL     -0.464279
    118 C38        -7.4340    1.3940   -2.6510 c3        1 MOL     -0.326703
    119 C39        -8.8830    1.2800   -2.3130 ca        1 MOL      0.165418
    120 C40        -9.7030    0.3240   -2.9340 ca        1 MOL     -0.218218
    121 C41        -9.4190    2.1510   -1.3270 ca        1 MOL     -0.218218
    122 C42       -11.0110    0.1500   -2.5450 ca        1 MOL     -0.037096
    123 C43       -10.7710    1.9950   -0.9260 ca        1 MOL     -0.037096
    124 C44       -11.5420    0.9570   -1.5150 ca        1 MOL     -0.214870
    125 H51        -4.8940    1.5890   -2.7900 hn        1 MOL      0.314599
    126 H52        -6.7150    1.6490   -0.6400 h1        1 MOL      0.047663
    127 H53        -7.1870    0.9060   -3.6040 hc        1 MOL      0.085140
    128 H54        -7.2360    2.4540   -2.8200 hc        1 MOL      0.085140
    129 H55        -9.3760   -0.2210   -3.8010 ha        1 MOL      0.128124
    130 H56        -8.8080    2.8920   -0.8480 ha        1 MOL      0.128124
    131 H57       -11.6680   -0.5080   -3.0930 ha        1 MOL      0.098228
    132 H58       -11.1150    2.5900   -0.0940 ha        1 MOL      0.098228
    133 H59       -12.4870    0.7680   -1.0360 ha        1 MOL      0.126665
    134 N12        -6.0230   -1.4870   -1.7500 n         1 MOL     -0.054043
    135 C45        -6.0380   -2.8850   -1.2540 c3        1 MOL      0.149684
    136 C46        -5.3820   -3.0550    0.1510 c         1 MOL      0.141366
    137 O20        -5.7200   -4.0330    0.8240 o         1 MOL     -0.498724
    138 C47        -5.2690   -3.7080   -2.2880 c3        1 MOL     -0.004846
    139 C48        -5.1480   -2.8670   -3.5180 c3        1 MOL     -0.250291
    140 C49        -5.3240   -1.4230   -3.0020 c3        1 MOL      0.173000
    141 H60        -7.0690   -3.2200   -1.1820 h1        1 MOL      0.048934
    142 H61        -4.2620   -3.8230   -1.8930 hc        1 MOL      0.036232
    143 H62        -5.8220   -4.6410   -2.4300 hc        1 MOL      0.036232
    144 H63        -4.1270   -2.9630   -3.9010 hc        1 MOL      0.083257
    145 H64        -5.9380   -3.0260   -4.2490 hc        1 MOL      0.083257
    146 H65        -4.3840   -0.8750   -2.9270 h1        1 MOL     -0.033649
    147 H66        -5.9660   -0.8250   -3.6450 h1        1 MOL     -0.033649
    148 N13        -4.5330   -2.1690    0.6860 n         1 MOL      0.071072
    149 C50        -3.9080   -2.1610    2.0060 c3        1 MOL     -0.076882
    150 C51        -4.7950   -1.3110    2.9740 c         1 MOL      0.391614
    151 O21        -4.9400   -1.5950    4.1750 o         1 MOL     -0.554249
    152 C52        -2.4950   -1.4530    2.0020 c3        1 MOL     -0.122731
    153 C53        -1.5360   -2.1370    1.0410 c3        1 MOL      0.103462
    154 C54        -0.2550   -1.4780    0.6480 c         1 MOL      0.595386
    155 O22         0.6800   -2.0980    0.0310 o         1 MOL     -0.717390
    156 O23        -0.1260   -0.3060    1.0080 o         1 MOL     -0.717390
    157 H67        -4.3050   -1.3820    0.0960 hn        1 MOL      0.084568
    158 H68        -3.7780   -3.1940    2.3480 h1        1 MOL      0.118373
    159 H69        -1.9730   -1.4270    2.9590 hc        1 MOL      0.057003
    160 H70        -2.5470   -0.4160    1.6570 hc        1 MOL      0.057003
    161 H71        -2.0360   -2.2720    0.0850 hc        1 MOL     -0.004706
    162 H72        -1.3970   -3.1640    1.4030 hc        1 MOL     -0.004706
    163 N14        -5.5430   -0.3160    2.4230 n         1 MOL      0.056309
    164 C55        -6.6030    0.2500    3.1510 c3        1 MOL     -0.315223
    165 H73        -6.2530    1.1460    3.6640 h1        1 MOL      0.092273
    166 H74        -7.4110    0.5160    2.4700 h1        1 MOL      0.092273
    167 H75        -6.9660   -0.4700    3.8840 h1        1 MOL      0.092273
    168 H76        -5.5110   -0.0970    1.4370 hn        1 MOL      0.036811
    169 Ca1         2.2190   -0.0440   -0.3620 Ca        1 MOL      1.726990
    170 O24         3.7980    1.0190    1.3280 oh        1 MOL     -1.035084
    171 H77         4.5970    1.0660    1.8670 ho        1 MOL      0.453803
    172 H78         3.0910    1.0440    1.9610 ho        1 MOL      0.453803
@<TRIPOS>BOND
     1    1    2 1   
     2    1    4 1   
     3    1    5 1   
     4    1    6 1   
     5    2    3 2   
     6    2    7 1   
     7    7    8 1   
     8    7   15 1   
     9    8    9 1   
    10    8   11 1   
    11    8   16 1   
    12    9   10 2   
    13    9   19 1   
    14   11   12 1   
    15   11   17 1   
    16   11   18 1   
    17   12   13 1   
    18   12   14 1   
    19   19   20 1   
    20   19   24 1   
    21   20   21 1   
    22   20   23 1   
    23   20   25 1   
    24   21   22 2   
    25   21   29 1   
    26   23   26 1   
    27   23   27 1   
    28   23   28 1   
    29   29   30 1   
    30   29   37 1   
    31   30   31 1   
    32   30   33 1   
    33   30   38 1   
    34   31   32 2   
    35   31   41 1   
    36   33   34 1   
    37   33   39 1   
    38   33   40 1   
    39   34   35 1   
    40   34   36 1   
    41   41   42 1   
    42   41   45 1   
    43   42   43 1   
    44   42   46 1   
    45   42   47 1   
    46   43   44 2   
    47   43   48 1   
    48   48   49 1   
    49   48   56 1   
    50   49   50 1   
    51   49   52 1   
    52   49   57 1   
    53   50   51 2   
    54   50   62 1   
    55   52   53 1   
    56   52   58 1   
    57   52   59 1   
    58   53   54 1   
    59   53   55 2   
    60   54   60 1   
    61   54   61 1   
    62   62   63 1   
    63   62   66 1   
    64   63   64 1   
    65   63   67 1   
    66   63   68 1   
    67   64   65 2   
    68   64   69 1   
    69   69   70 1   
    70   69   76 1   
    71   70   71 1   
    72   70   73 1   
    73   70   77 1   
    74   71   72 2   
    75   71   83 1   
    76   73   74 1   
    77   73   75 1   
    78   73   78 1   
    79   74   80 1   
    80   74   81 1   
    81   74   82 1   
    82   75   79 1   
    83   83   84 1   
    84   83   91 1   
    85   84   85 1   
    86   84   87 1   
    87   84   92 1   
    88   85   86 2   
    89   85  102 1   
    90   87   88 1   
    91   87   89 1   
    92   87   93 1   
    93   88   90 1   
    94   88   94 1   
    95   88   95 1   
    96   89   96 1   
    97   89   97 1   
    98   89   98 1   
    99   90   99 1   
   100   90  100 1   
   101   90  101 1   
   102  102  103 1   
   103  102  110 1   
   104  103  104 1   
   105  103  106 1   
   106  103  111 1   
   107  104  105 2   
   108  104  114 1   
   109  106  107 1   
   110  106  112 1   
   111  106  113 1   
   112  107  108 1   
   113  107  109 1   
   114  114  115 1   
   115  114  125 1   
   116  115  116 1   
   117  115  118 1   
   118  115  126 1   
   119  116  117 2   
   120  116  134 1   
   121  118  119 1   
   122  118  127 1   
   123  118  128 1   
   124  119  120 ar  
   125  119  121 ar  
   126  120  122 ar  
   127  120  129 1   
   128  121  123 ar  
   129  121  130 1   
   130  122  124 ar  
   131  122  131 1   
   132  123  124 ar  
   133  123  132 1   
   134  124  133 1   
   135  134  135 1   
   136  134  140 1   
   137  135  136 1   
   138  135  138 1   
   139  135  141 1   
   140  136  137 2   
   141  136  148 1   
   142  138  139 1   
   143  138  142 1   
   144  138  143 1   
   145  139  140 1   
   146  139  144 1   
   147  139  145 1   
   148  140  146 1   
   149  140  147 1   
   150  148  149 1   
   151  148  157 1   
   152  149  150 1   
   153  149  152 1   
   154  149  158 1   
   155  150  151 2   
   156  150  163 1   
   157  152  153 1   
   158  152  159 1   
   159  152  160 1   
   160  153  154 1   
   161  153  161 1   
   162  153  162 1   
   163  154  155 1   
   164  154  156 1   
   165  163  164 1   
   166  163  168 1   
   167  164  165 1   
   168  164  166 1   
   169  164  167 1   
   170  170  171 1   
   171  170  172 1   
@<TRIPOS>SUBSTRUCTURE
     1 MOL         1 TEMP              0 ****  ****    0 ROOT
