@<TRIPOS>MOLECULE
MOL
  175   173     1     0     0
SMALL
resp


@<TRIPOS>ATOM
      1 C1          0.5520    3.8270    5.6070 c3        1 MOL     -0.416190
      2 C2          0.0200    3.9590    4.1630 c         1 MOL      0.698959
      3 O1          0.7540    3.9450    3.1710 o         1 MOL     -0.556578
      4 H1          1.0140    2.8480    5.7360 hc        1 MOL      0.101482
      5 H2          1.2930    4.6050    5.7940 hc        1 MOL      0.101482
      6 H3         -0.2740    3.9340    6.3110 hc        1 MOL      0.101482
      7 N1         -1.2870    3.9910    4.0190 n         1 MOL     -0.638725
      8 C3         -1.8940    3.6860    2.7620 c3        1 MOL      0.228698
      9 C4         -1.7610    4.8120    1.7280 c         1 MOL      0.679879
     10 O2         -1.8760    5.9710    2.1270 o         1 MOL     -0.598639
     11 C5         -3.3430    3.3280    2.8900 c3        1 MOL     -0.368156
     12 C6         -4.1420    2.9060    1.6670 c         1 MOL      0.740375
     13 O3         -5.3540    3.2510    1.7390 o         1 MOL     -0.631660
     14 O4         -3.5570    2.3270    0.6990 o         1 MOL     -0.631660
     15 H4         -1.8810    4.0460    4.8370 hn        1 MOL      0.331882
     16 H5         -1.3050    2.7900    2.5280 h1        1 MOL      0.089490
     17 H6         -3.7590    4.2060    3.3710 hc        1 MOL      0.055712
     18 H7         -3.3750    2.4960    3.6010 hc        1 MOL      0.055712
     19 N2         -1.5720    4.5010    0.4430 n         1 MOL     -0.751219
     20 C7         -1.8620    5.4320   -0.7240 c3        1 MOL      0.626599
     21 C8         -2.8230    4.9560   -1.8890 c         1 MOL      0.305667
     22 O5         -2.8150    5.4840   -2.9550 o         1 MOL     -0.524082
     23 C9         -0.5760    6.1050   -1.1690 c3        1 MOL     -0.309390
     24 H8         -1.3790    3.5370    0.2040 hn        1 MOL      0.371869
     25 H9         -2.4570    6.2920   -0.3920 h1        1 MOL     -0.057514
     26 H10        -0.1950    6.6700   -0.3210 hc        1 MOL      0.055820
     27 H11         0.0210    5.2740   -1.5550 hc        1 MOL      0.055820
     28 H12        -0.8160    6.7600   -2.0060 hc        1 MOL      0.055820
     29 N3         -3.6140    3.8380   -1.8030 n         1 MOL     -0.166925
     30 C10        -4.6170    3.4860   -2.8150 c3        1 MOL     -0.004545
     31 C11        -5.9320    2.7920   -2.3500 c         1 MOL      0.448731
     32 O6         -6.8750    2.6280   -3.1310 o         1 MOL     -0.567122
     33 C12        -3.9870    2.5930   -3.8500 c3        1 MOL     -0.116756
     34 C13        -3.2570    1.4100   -3.2640 c         1 MOL      0.683313
     35 O7         -3.5840    0.8510   -2.1810 o         1 MOL     -0.672931
     36 O8         -2.3080    1.0610   -4.0090 o         1 MOL     -0.672931
     37 H13        -3.4850    3.3480   -0.9350 hn        1 MOL      0.040604
     38 H14        -5.0430    4.4040   -3.2420 h1        1 MOL      0.071075
     39 H15        -3.3080    3.1440   -4.5060 hc        1 MOL      0.036137
     40 H16        -4.7670    2.1780   -4.4770 hc        1 MOL      0.036137
     41 N4         -6.0290    2.3390   -1.0630 n         1 MOL     -0.265039
     42 C14        -7.1480    1.4680   -0.4720 c3        1 MOL     -0.081238
     43 C15        -7.2090   -0.0320   -0.8070 c         1 MOL      0.461032
     44 O9         -8.2380   -0.6570   -0.5720 o         1 MOL     -0.623313
     45 H17        -5.2660    2.5260   -0.4320 hn        1 MOL      0.133081
     46 H18        -8.1380    1.8690   -0.6790 h1        1 MOL      0.094714
     47 H19        -7.1570    1.7500    0.5810 h1        1 MOL      0.094714
     48 N5         -6.1970   -0.6410   -1.4460 n         1 MOL     -0.206388
     49 C16        -6.3280   -1.9360   -2.1770 c3        1 MOL      0.163220
     50 C17        -6.4000   -3.1630   -1.2890 c         1 MOL      0.376950
     51 O10        -6.0820   -4.2890   -1.7000 o         1 MOL     -0.512399
     52 C18        -5.1910   -2.0270   -3.1920 c3        1 MOL     -0.386227
     53 C19        -3.7980   -2.1680   -2.5730 c         1 MOL      0.641070
     54 N6         -2.8090   -2.2950   -3.4110 n         1 MOL     -0.672590
     55 O11        -3.5780   -2.0170   -1.4130 o         1 MOL     -0.539532
     56 H20        -5.3850   -0.0520   -1.5770 hn        1 MOL      0.189094
     57 H21        -7.2980   -1.9460   -2.6780 h1        1 MOL      0.070462
     58 H22        -5.1800   -1.0750   -3.7100 hc        1 MOL      0.101929
     59 H23        -5.4280   -2.8250   -3.8960 hc        1 MOL      0.101929
     60 H24        -3.0190   -2.2630   -4.3990 hn        1 MOL      0.340549
     61 H25        -1.8440   -2.2010   -3.1290 hn        1 MOL      0.340549
     62 N7         -6.7190   -2.9920   -0.0210 n         1 MOL     -0.267683
     63 C20        -6.7270   -4.0870    1.0090 c3        1 MOL     -0.205310
     64 C21        -5.4090   -4.4010    1.7880 c         1 MOL      0.495576
     65 O12        -5.4590   -5.0550    2.8120 o         1 MOL     -0.543947
     66 H26        -7.1630   -2.1250    0.2190 hn        1 MOL      0.272539
     67 H27        -7.1790   -4.9340    0.4950 h1        1 MOL      0.113479
     68 H28        -7.4440   -3.7330    1.7560 h1        1 MOL      0.113479
     69 N8         -4.2210   -3.9830    1.2600 n         1 MOL     -0.229061
     70 C22        -2.8810   -4.4480    1.5890 c3        1 MOL     -0.166373
     71 C23        -1.8160   -3.3800    1.4330 c         1 MOL      0.690033
     72 O13        -2.0610   -2.3230    0.8370 o         1 MOL     -0.585431
     73 C24        -2.4570   -5.5920    0.6260 c3        1 MOL      0.445402
     74 C25        -3.4280   -6.8280    0.7660 c3        1 MOL     -0.590341
     75 O14        -2.4470   -5.2760   -0.7200 oh        1 MOL     -0.544441
     76 H29        -4.2810   -3.3500    0.4820 hn        1 MOL      0.178049
     77 H30        -2.9130   -4.7960    2.6140 h1        1 MOL      0.092953
     78 H31        -1.4580   -5.9210    0.8790 h1        1 MOL     -0.042071
     79 H32        -1.9210   -4.4730   -0.7170 ho        1 MOL      0.375417
     80 H33        -4.3620   -6.5380    0.2820 hc        1 MOL      0.160075
     81 H34        -2.9840   -7.6310    0.1790 hc        1 MOL      0.160075
     82 H35        -3.6320   -7.1010    1.8030 hc        1 MOL      0.160075
     83 N9         -0.6390   -3.5690    2.0580 n         1 MOL     -0.691197
     84 C26         0.5590   -2.7100    1.9120 c3        1 MOL      0.271030
     85 C27         1.3150   -2.9870    0.6200 c         1 MOL      0.506491
     86 O15         1.3470   -4.1400    0.2550 o         1 MOL     -0.578248
     87 C28         1.4180   -2.8760    3.2240 c3        1 MOL      0.100811
     88 C29         0.8560   -2.0010    4.3480 c3        1 MOL      0.044073
     89 C30         2.9690   -2.5920    3.1020 c3        1 MOL     -0.168382
     90 C31         1.5210   -2.2590    5.7530 c3        1 MOL     -0.375353
     91 H36        -0.4710   -4.5560    2.1920 hn        1 MOL      0.285939
     92 H37         0.2380   -1.6750    1.8290 h1        1 MOL      0.046069
     93 H38         1.2840   -3.9310    3.4900 hc        1 MOL     -0.001904
     94 H39        -0.2210   -2.1540    4.4440 hc        1 MOL      0.015745
     95 H40         0.9560   -0.9380    4.1520 hc        1 MOL      0.015745
     96 H41         3.4890   -3.0180    3.9510 hc        1 MOL      0.031077
     97 H42         3.3500   -3.1760    2.2740 hc        1 MOL      0.031077
     98 H43         3.1630   -1.5280    2.9510 hc        1 MOL      0.031077
     99 H44         2.5480   -1.9150    5.6520 hc        1 MOL      0.090709
    100 H45         1.0740   -1.5720    6.4660 hc        1 MOL      0.090709
    101 H46         1.6250   -3.2820    6.1370 hc        1 MOL      0.090709
    102 N10         1.9760   -1.9660    0.0120 n         1 MOL     -0.171845
    103 C32         2.7390   -2.0470   -1.1940 c3        1 MOL      0.123588
    104 C33         4.1990   -1.6020   -0.8340 c         1 MOL      0.385850
    105 O16         4.3710   -0.9510    0.1790 o         1 MOL     -0.282516
    106 C34         2.0810   -1.0680   -2.2000 c3        1 MOL     -0.301309
    107 C35         0.4940   -1.3260   -2.3760 c         1 MOL      0.777001
    108 O17        -0.3160   -0.8050   -1.6130 o         1 MOL     -0.694947
    109 O18         0.0380   -2.1330   -3.2370 o         1 MOL     -0.694947
    110 H47         1.9220   -1.0320    0.4080 hn        1 MOL     -0.058044
    111 H48         2.7080   -3.0400   -1.6460 h1        1 MOL      0.052232
    112 H49         2.5140   -1.1470   -3.1970 hc        1 MOL      0.073105
    113 H50         2.2480   -0.0960   -1.7460 hc        1 MOL      0.073105
    114 N11         5.2220   -1.9810   -1.6010 n         1 MOL     -0.618241
    115 C36         6.6080   -1.6990   -1.2480 c3        1 MOL      0.277849
    116 C37         6.9450   -0.1620   -1.1460 c         1 MOL      0.256654
    117 O19         7.7980    0.2140   -0.2800 o         1 MOL     -0.407694
    118 C38         7.5570   -2.3520   -2.1930 c3        1 MOL     -0.239693
    119 C39         8.9950   -2.1050   -1.8710 ca        1 MOL     -0.022553
    120 C40         9.5120   -2.3170   -0.5660 ca        1 MOL     -0.012996
    121 C41         9.7440   -1.4710   -2.8230 ca        1 MOL     -0.012996
    122 C42        10.8890   -2.0660   -0.3530 ca        1 MOL     -0.274855
    123 C43        11.0880   -1.1260   -2.5660 ca        1 MOL     -0.274855
    124 C44        11.5760   -1.3380   -1.2660 ca        1 MOL      0.075319
    125 H51         5.0410   -2.5670   -2.4050 hn        1 MOL      0.339480
    126 H52         6.7050   -2.0880   -0.2280 h1        1 MOL      0.113612
    127 H53         7.2710   -1.9660   -3.1660 hc        1 MOL      0.079896
    128 H54         7.4440   -3.4360   -2.2450 hc        1 MOL      0.079896
    129 H55         8.9700   -2.8110    0.2350 ha        1 MOL      0.090401
    130 H56         9.3620   -1.2540   -3.8130 ha        1 MOL      0.090401
    131 H57        11.3530   -2.1860    0.6200 ha        1 MOL      0.140189
    132 H58        11.5490   -0.5970   -3.3870 ha        1 MOL      0.140189
    133 H59        12.5760   -0.9920   -1.0730 ha        1 MOL      0.057348
    134 N12         6.2050    0.8090   -1.8480 n         1 MOL      0.017814
    135 C45         6.3280    2.2350   -1.4860 c3        1 MOL     -0.029496
    136 C46         5.7660    2.5420   -0.1230 c         1 MOL      0.466936
    137 O20         6.2900    3.3740    0.6420 o         1 MOL     -0.514557
    138 C47         5.8740    2.9930   -2.7340 c3        1 MOL      0.016742
    139 C48         5.9030    1.9640   -3.8160 c3        1 MOL      0.069108
    140 C49         5.6510    0.6300   -3.1810 c3        1 MOL     -0.086717
    141 H60         7.3780    2.4810   -1.4130 h1        1 MOL      0.038694
    142 H61         4.9230    3.5160   -2.6480 hc        1 MOL      0.018697
    143 H62         6.5520    3.7770   -3.0890 hc        1 MOL      0.018697
    144 H63         5.2660    2.2320   -4.6600 hc        1 MOL      0.002932
    145 H64         6.8570    1.9460   -4.3370 hc        1 MOL      0.002932
    146 H65         4.6260    0.2810   -3.1170 h1        1 MOL      0.035303
    147 H66         6.3100   -0.0230   -3.7560 h1        1 MOL      0.035303
    148 N13         4.5960    1.9090    0.2230 n         1 MOL     -0.437882
    149 C50         4.0110    1.9790    1.6320 c3        1 MOL      0.045269
    150 C51         4.8240    1.2530    2.7050 c         1 MOL      0.430785
    151 O21         4.8430    1.6380    3.8260 o         1 MOL     -0.578516
    152 C52         2.5970    1.5310    1.6030 c3        1 MOL     -0.062737
    153 C53         1.7180    2.0690    0.4050 c3        1 MOL     -0.240471
    154 C54         0.3450    1.5360    0.6330 c         1 MOL      0.771546
    155 O22         0.0600    0.6880    1.5240 o         1 MOL     -0.773111
    156 O23        -0.5600    1.8600   -0.1390 o         1 MOL     -0.773111
    157 H67         4.2070    1.2570   -0.4500 hn        1 MOL      0.279048
    158 H68         3.9130    2.9920    2.0220 h1        1 MOL      0.101826
    159 H69         2.1690    1.9840    2.5020 hc        1 MOL      0.085111
    160 H70         2.6230    0.4460    1.5610 hc        1 MOL      0.085111
    161 H71         2.0810    1.8380   -0.6060 hc        1 MOL      0.097701
    162 H72         1.6350    3.1350    0.5770 hc        1 MOL      0.097701
    163 N14         5.6170    0.3360    2.2720 n         1 MOL      0.192702
    164 C55         6.4830   -0.5070    3.0890 c3        1 MOL     -0.220365
    165 H73         5.8820   -1.0350    3.8290 h1        1 MOL      0.075458
    166 H74         6.9930   -1.2290    2.4520 h1        1 MOL      0.075458
    167 H75         7.2200    0.1140    3.5980 h1        1 MOL      0.075458
    168 H76         5.5670    0.1840    1.2650 hn        1 MOL     -0.231333
    169 Ca1        -2.3240    0.0680   -0.0760 Ca        1 MOL      1.727456
    170 O24        -4.6800   -0.4080    1.4690 oh        1 MOL     -0.892923
    171 H77        -5.4740   -0.6720    1.9440 ho        1 MOL      0.420690
    172 H78        -4.0710   -0.1330    2.1480 ho        1 MOL      0.420690
    173 O25        -2.2330    0.1710    2.6760 oh        1 MOL     -0.892923
    174 H79        -1.3280    0.3910    2.4390 ho        1 MOL      0.420690
    175 H80        -2.2330    0.1520    3.6320 ho        1 MOL      0.420690
@<TRIPOS>BOND
     1    1    2 1   
     2    1    4 1   
     3    1    5 1   
     4    1    6 1   
     5    2    3 2   
     6    2    7 1   
     7    7    8 1   
     8    7   15 1   
     9    8    9 1   
    10    8   11 1   
    11    8   16 1   
    12    9   10 2   
    13    9   19 1   
    14   11   12 1   
    15   11   17 1   
    16   11   18 1   
    17   12   13 1   
    18   12   14 1   
    19   19   20 1   
    20   19   24 1   
    21   20   21 1   
    22   20   23 1   
    23   20   25 1   
    24   21   22 2   
    25   21   29 1   
    26   23   26 1   
    27   23   27 1   
    28   23   28 1   
    29   29   30 1   
    30   29   37 1   
    31   30   31 1   
    32   30   33 1   
    33   30   38 1   
    34   31   32 2   
    35   31   41 1   
    36   33   34 1   
    37   33   39 1   
    38   33   40 1   
    39   34   35 1   
    40   34   36 1   
    41   41   42 1   
    42   41   45 1   
    43   42   43 1   
    44   42   46 1   
    45   42   47 1   
    46   43   44 2   
    47   43   48 1   
    48   48   49 1   
    49   48   56 1   
    50   49   50 1   
    51   49   52 1   
    52   49   57 1   
    53   50   51 2   
    54   50   62 1   
    55   52   53 1   
    56   52   58 1   
    57   52   59 1   
    58   53   54 1   
    59   53   55 2   
    60   54   60 1   
    61   54   61 1   
    62   62   63 1   
    63   62   66 1   
    64   63   64 1   
    65   63   67 1   
    66   63   68 1   
    67   64   65 2   
    68   64   69 1   
    69   69   70 1   
    70   69   76 1   
    71   70   71 1   
    72   70   73 1   
    73   70   77 1   
    74   71   72 2   
    75   71   83 1   
    76   73   74 1   
    77   73   75 1   
    78   73   78 1   
    79   74   80 1   
    80   74   81 1   
    81   74   82 1   
    82   75   79 1   
    83   83   84 1   
    84   83   91 1   
    85   84   85 1   
    86   84   87 1   
    87   84   92 1   
    88   85   86 2   
    89   85  102 1   
    90   87   88 1   
    91   87   89 1   
    92   87   93 1   
    93   88   90 1   
    94   88   94 1   
    95   88   95 1   
    96   89   96 1   
    97   89   97 1   
    98   89   98 1   
    99   90   99 1   
   100   90  100 1   
   101   90  101 1   
   102  102  103 1   
   103  102  110 1   
   104  103  104 1   
   105  103  106 1   
   106  103  111 1   
   107  104  105 2   
   108  104  114 1   
   109  106  107 1   
   110  106  112 1   
   111  106  113 1   
   112  107  108 1   
   113  107  109 1   
   114  114  115 1   
   115  114  125 1   
   116  115  116 1   
   117  115  118 1   
   118  115  126 1   
   119  116  117 2   
   120  116  134 1   
   121  118  119 1   
   122  118  127 1   
   123  118  128 1   
   124  119  120 ar  
   125  119  121 ar  
   126  120  122 ar  
   127  120  129 1   
   128  121  123 ar  
   129  121  130 1   
   130  122  124 ar  
   131  122  131 1   
   132  123  124 ar  
   133  123  132 1   
   134  124  133 1   
   135  134  135 1   
   136  134  140 1   
   137  135  136 1   
   138  135  138 1   
   139  135  141 1   
   140  136  137 2   
   141  136  148 1   
   142  138  139 1   
   143  138  142 1   
   144  138  143 1   
   145  139  140 1   
   146  139  144 1   
   147  139  145 1   
   148  140  146 1   
   149  140  147 1   
   150  148  149 1   
   151  148  157 1   
   152  149  150 1   
   153  149  152 1   
   154  149  158 1   
   155  150  151 2   
   156  150  163 1   
   157  152  153 1   
   158  152  159 1   
   159  152  160 1   
   160  153  154 1   
   161  153  161 1   
   162  153  162 1   
   163  154  155 1   
   164  154  156 1   
   165  163  164 1   
   166  163  168 1   
   167  164  165 1   
   168  164  166 1   
   169  164  167 1   
   170  170  171 1   
   171  170  172 1   
   172  173  174 1   
   173  173  175 1   
@<TRIPOS>SUBSTRUCTURE
     1 MOL         1 TEMP              0 ****  ****    0 ROOT
