@<TRIPOS>MOLECULE
MOL
  175   173     1     0     0
SMALL
resp


@<TRIPOS>ATOM
      1 C1         -0.4810   -3.4240    5.5950 c3        1 MOL     -0.474451
      2 C2          0.2220   -3.4130    4.2310 c         1 MOL      0.733182
      3 O1         -0.4170   -3.7070    3.2150 o         1 MOL     -0.571878
      4 H1          0.2450   -3.2110    6.3790 hc        1 MOL      0.119167
      5 H2         -1.2620   -2.6630    5.6080 hc        1 MOL      0.119167
      6 H3         -0.9250   -4.4040    5.7690 hc        1 MOL      0.119167
      7 N1          1.5180   -3.2160    4.1620 n         1 MOL     -0.635565
      8 C3          2.2600   -3.0950    2.9400 c3        1 MOL      0.054260
      9 C4          2.5240   -4.3500    2.2020 c         1 MOL      0.627094
     10 O2          3.2290   -5.2360    2.7410 o         1 MOL     -0.586593
     11 C5          3.5580   -2.3050    3.1980 c3        1 MOL     -0.294126
     12 C6          4.2050   -1.8680    1.9120 c         1 MOL      0.819952
     13 O3          3.6380   -1.9980    0.8140 o         1 MOL     -0.718333
     14 O4          5.3850   -1.4360    2.0130 o         1 MOL     -0.718333
     15 H4          2.1250   -3.3090    4.9650 hn        1 MOL      0.337041
     16 H5          1.6740   -2.4610    2.2700 h1        1 MOL      0.194349
     17 H6          4.2530   -2.8610    3.8320 hc        1 MOL      0.054137
     18 H7          3.3090   -1.3800    3.7120 hc        1 MOL      0.054137
     19 N2          1.9850   -4.5060    0.9330 n         1 MOL     -0.437475
     20 C7          2.1750   -5.5920    0.0100 c3        1 MOL      0.171026
     21 C8          3.0260   -5.3350   -1.1730 c         1 MOL      0.510627
     22 O5          3.0640   -6.1560   -2.0670 o         1 MOL     -0.578661
     23 C9          0.8140   -6.2240   -0.2710 c3        1 MOL     -0.082962
     24 H8          1.4160   -3.7420    0.6050 hn        1 MOL      0.249082
     25 H9          2.7210   -6.3030    0.6410 h1        1 MOL      0.005520
     26 H10         0.2880   -6.5910    0.6070 hc        1 MOL      0.018571
     27 H11         0.1550   -5.4760   -0.7060 hc        1 MOL      0.018571
     28 H12         0.8100   -7.0470   -0.9870 hc        1 MOL      0.018571
     29 N3          3.6620   -4.1640   -1.2590 n         1 MOL     -0.340844
     30 C10         4.5490   -3.7860   -2.3900 c3        1 MOL      0.057442
     31 C11         5.8670   -3.1460   -2.0110 c         1 MOL      0.515996
     32 O6          6.8890   -3.4630   -2.6320 o         1 MOL     -0.581553
     33 C12         3.6940   -2.9980   -3.3710 c3        1 MOL     -0.170760
     34 C13         3.1210   -1.7460   -2.7560 c         1 MOL      0.695286
     35 O7          1.9110   -1.4730   -2.9470 o         1 MOL     -0.707480
     36 O8          3.7230   -1.0120   -1.9620 o         1 MOL     -0.707480
     37 H13         3.5710   -3.5610   -0.4560 hn        1 MOL      0.172744
     38 H14         4.8510   -4.7120   -2.8900 h1        1 MOL      0.061267
     39 H15         2.8660   -3.6260   -3.6920 hc        1 MOL      0.049878
     40 H16         4.2640   -2.7340   -4.2630 hc        1 MOL      0.049878
     41 N4          5.9510   -2.3990   -0.8930 n         1 MOL     -0.384803
     42 C14         7.2380   -1.6060   -0.6150 c3        1 MOL     -0.043165
     43 C15         7.2720   -0.1270   -1.0950 c         1 MOL      0.428644
     44 O9          8.3920    0.4330   -1.1490 o         1 MOL     -0.617222
     45 H17         5.1170   -2.1120   -0.4010 hn        1 MOL      0.250953
     46 H18         8.1790   -2.1050   -0.8440 h1        1 MOL      0.098140
     47 H19         7.2610   -1.5130    0.4690 h1        1 MOL      0.098140
     48 N5          6.2240    0.6050   -1.4200 n         1 MOL     -0.137494
     49 C16         6.1550    1.8010   -2.2100 c3        1 MOL      0.031774
     50 C17         6.1440    3.1160   -1.4780 c         1 MOL      0.403679
     51 O10         6.1310    4.2100   -2.0300 o         1 MOL     -0.532168
     52 C18         5.1030    1.7030   -3.2920 c3        1 MOL      0.059512
     53 C19         3.6610    1.6660   -2.8410 c         1 MOL      0.393314
     54 N6          2.7440    1.5970   -3.7900 n         1 MOL     -0.502089
     55 O11         3.3450    1.8660   -1.6730 o         1 MOL     -0.464607
     56 H20         5.3650    0.0710   -1.3840 hn        1 MOL      0.144641
     57 H21         7.0190    1.8560   -2.8750 h1        1 MOL      0.084317
     58 H22         5.3000    0.7820   -3.8500 hc        1 MOL     -0.009062
     59 H23         5.2720    2.4830   -4.0350 hc        1 MOL     -0.009062
     60 H24         3.1180    1.4340   -4.7090 hn        1 MOL      0.290236
     61 H25         1.7550    1.6620   -3.5780 hn        1 MOL      0.290236
     62 N7          6.2020    3.0590   -0.1410 n         1 MOL     -0.275020
     63 C20         6.2750    4.2510    0.7190 c3        1 MOL     -0.118775
     64 C21         4.9490    4.7010    1.3470 c         1 MOL      0.468581
     65 O12         4.9150    5.4830    2.2880 o         1 MOL     -0.569486
     66 H26         6.2510    2.1470    0.2970 hn        1 MOL      0.203001
     67 H27         6.6440    5.1210    0.1990 h1        1 MOL      0.101626
     68 H28         6.9730    4.1720    1.5500 h1        1 MOL      0.101626
     69 N8          3.8190    4.2090    0.8020 n         1 MOL     -0.206700
     70 C22         2.5050    4.7660    1.1980 c3        1 MOL     -0.391547
     71 C23         1.4800    3.6290    1.3270 c         1 MOL      0.834629
     72 O13         1.6450    2.5960    0.7180 o         1 MOL     -0.672936
     73 C24         2.0390    5.6900   -0.0040 c3        1 MOL      0.601833
     74 C25         2.7750    7.0300   -0.0190 c3        1 MOL     -0.400216
     75 O14         2.2080    5.1180   -1.2920 oh        1 MOL     -0.619313
     76 H29         3.9050    3.6440   -0.0280 hn        1 MOL      0.214790
     77 H30         2.4760    5.2720    2.1590 h1        1 MOL      0.151098
     78 H31         0.9720    5.8770    0.1710 h1        1 MOL     -0.067605
     79 H32         2.0230    4.1760   -1.2160 ho        1 MOL      0.386043
     80 H33         2.1520    7.8440   -0.3970 hc        1 MOL      0.095994
     81 H34         2.9940    7.2540    1.0200 hc        1 MOL      0.095994
     82 H35         3.6850    6.9950   -0.6170 hc        1 MOL      0.095994
     83 N9          0.3220    3.8810    1.9530 n         1 MOL     -0.700002
     84 C26        -0.8300    2.9900    1.8790 c3        1 MOL     -0.002462
     85 C27        -1.5340    3.1590    0.5210 c         1 MOL      0.455267
     86 O15        -1.6500    4.2640   -0.0380 o         1 MOL     -0.547660
     87 C28        -1.7530    3.2990    3.1100 c3        1 MOL      0.202831
     88 C29        -0.9610    3.4280    4.4870 c3        1 MOL      0.086569
     89 C30        -2.7850    2.1860    3.1400 c3        1 MOL     -0.143358
     90 C31        -1.8270    3.9000    5.7040 c3        1 MOL     -0.318132
     91 H36         0.1390    4.7930    2.3390 hn        1 MOL      0.323133
     92 H37        -0.3870    1.9980    1.9680 h1        1 MOL      0.101369
     93 H38        -2.2860    4.2260    2.9590 hc        1 MOL     -0.026608
     94 H39        -0.1420    4.1410    4.3410 hc        1 MOL     -0.012817
     95 H40        -0.4780    2.4630    4.6820 hc        1 MOL     -0.012817
     96 H41        -2.2980    1.2270    3.2650 hc        1 MOL      0.010955
     97 H42        -3.4900    2.3760    3.9460 hc        1 MOL      0.010955
     98 H43        -3.3900    2.1710    2.2280 hc        1 MOL      0.010955
     99 H44        -2.2170    4.9050    5.4990 hc        1 MOL      0.075980
    100 H45        -2.6760    3.2220    5.6390 hc        1 MOL      0.075980
    101 H46        -1.3180    3.7660    6.6580 hc        1 MOL      0.075980
    102 N10        -1.8850    1.9950   -0.1460 n         1 MOL     -0.084085
    103 C32        -2.6430    1.8360   -1.3610 c3        1 MOL      0.072664
    104 C33        -4.0190    1.3700   -1.0070 c         1 MOL      0.181122
    105 O16        -4.2760    0.8610    0.0710 o         1 MOL     -0.150025
    106 C34        -1.9710    0.8160   -2.3030 c3        1 MOL     -0.378759
    107 C35        -0.5690    1.1220   -2.7780 c         1 MOL      0.811116
    108 O17         0.3250    0.8040   -1.9800 o         1 MOL     -0.697900
    109 O18        -0.2150    1.6560   -3.8570 o         1 MOL     -0.697900
    110 H47        -1.4270    1.1390    0.1360 hn        1 MOL      0.041065
    111 H48        -2.6610    2.7890   -1.8940 h1        1 MOL      0.058340
    112 H49        -2.6160    0.6820   -3.1660 hc        1 MOL      0.096273
    113 H50        -2.1250   -0.1670   -1.8460 hc        1 MOL      0.096273
    114 N11        -5.0190    1.5840   -1.8510 n         1 MOL     -0.427786
    115 C36        -6.4350    1.2730   -1.5790 c3        1 MOL      0.212100
    116 C37        -6.6180   -0.1810   -1.1790 c         1 MOL      0.419382
    117 O19        -7.3630   -0.3610   -0.2030 o         1 MOL     -0.508085
    118 C38        -7.3020    1.6720   -2.7400 c3        1 MOL     -0.383847
    119 C39        -8.7770    1.3680   -2.3010 ca        1 MOL      0.305676
    120 C40        -9.3880    2.4080   -1.5850 ca        1 MOL     -0.321111
    121 C41        -9.4650    0.2470   -2.7990 ca        1 MOL     -0.321111
    122 C42       -10.7030    2.2040   -1.1660 ca        1 MOL      0.028946
    123 C43       -10.8030    0.1170   -2.3770 ca        1 MOL      0.028946
    124 C44       -11.4370    1.0820   -1.5880 ca        1 MOL     -0.259701
    125 H51        -4.8210    2.0510   -2.7260 hn        1 MOL      0.303356
    126 H52        -6.6450    1.8360   -0.6670 h1        1 MOL      0.068960
    127 H53        -7.0090    1.1290   -3.6440 hc        1 MOL      0.102225
    128 H54        -7.1320    2.7160   -3.0010 hc        1 MOL      0.102225
    129 H55        -8.8830    3.3240   -1.3170 ha        1 MOL      0.160975
    130 H56        -8.9380   -0.5290   -3.3310 ha        1 MOL      0.160975
    131 H57       -11.1430    2.9420   -0.5100 ha        1 MOL      0.081952
    132 H58       -11.2860   -0.7610   -2.7810 ha        1 MOL      0.081952
    133 H59       -12.4370    1.0350   -1.1940 ha        1 MOL      0.132086
    134 N12        -5.8530   -1.2000   -1.7620 n         1 MOL      0.045396
    135 C45        -6.0200   -2.6160   -1.3680 c3        1 MOL     -0.383257
    136 C46        -5.3820   -2.9100    0.0860 c         1 MOL      0.523469
    137 O20        -5.3770   -4.0870    0.5310 o         1 MOL     -0.557953
    138 C47        -5.2760   -3.3570   -2.5450 c3        1 MOL      0.182450
    139 C48        -5.3420   -2.4340   -3.7370 c3        1 MOL     -0.092631
    140 C49        -5.0560   -1.1850   -3.0080 c3        1 MOL     -0.145672
    141 H60        -7.0470   -2.9820   -1.3520 h1        1 MOL      0.154440
    142 H61        -4.2710   -3.5860   -2.1940 hc        1 MOL      0.008798
    143 H62        -5.6670   -4.3400   -2.8290 hc        1 MOL      0.008798
    144 H63        -4.6420   -2.8360   -4.4690 hc        1 MOL      0.041381
    145 H64        -6.3540   -2.3300   -4.1170 hc        1 MOL      0.041381
    146 H65        -4.0080   -1.2090   -2.7090 h1        1 MOL      0.085565
    147 H66        -5.3040   -0.2970   -3.5830 h1        1 MOL      0.085565
    148 N13        -4.8950   -1.9130    0.7810 n         1 MOL     -0.260325
    149 C50        -4.1960   -1.9960    2.0640 c3        1 MOL     -0.013499
    150 C51        -4.7670   -1.0610    3.0980 c         1 MOL      0.391909
    151 O21        -4.8110   -1.2770    4.2850 o         1 MOL     -0.562073
    152 C52        -2.7360   -1.5890    1.9330 c3        1 MOL      0.042768
    153 C53        -1.9750   -2.2550    0.8040 c3        1 MOL      0.036160
    154 C54        -0.6280   -1.6030    0.6430 c         1 MOL      0.463308
    155 O22         0.3780   -2.2220    0.2700 o         1 MOL     -0.629943
    156 O23        -0.4510   -0.3610    0.8300 o         1 MOL     -0.629943
    157 H67        -4.7950   -1.0700    0.2290 hn        1 MOL      0.043986
    158 H68        -4.2220   -3.0560    2.3350 h1        1 MOL      0.100857
    159 H69        -2.2600   -1.9120    2.8600 hc        1 MOL      0.017654
    160 H70        -2.6870   -0.4990    1.8990 hc        1 MOL      0.017654
    161 H71        -2.4730   -2.0400   -0.1320 hc        1 MOL      0.048524
    162 H72        -1.9260   -3.3270    1.0090 hc        1 MOL      0.048524
    163 N14        -5.4450   -0.0210    2.6420 n         1 MOL      0.012082
    164 C55        -6.3960    0.8330    3.4500 c3        1 MOL     -0.106599
    165 H73        -6.0320    0.9130    4.4740 h1        1 MOL      0.054383
    166 H74        -6.4570    1.8270    3.0080 h1        1 MOL      0.054383
    167 H75        -7.3850    0.3740    3.4510 h1        1 MOL      0.054383
    168 H76        -5.3450    0.1940    1.6600 hn        1 MOL      0.006260
    169 Ca1         1.9630   -0.0010   -0.2480 Ca        1 MOL      1.733131
    170 O24         4.2210    0.8480    1.0920 oh        1 MOL     -0.702636
    171 H77         4.8100    0.1070    1.2210 ho        1 MOL      0.344600
    172 H78         4.4660    1.4660    1.7910 ho        1 MOL      0.344600
    173 O25         1.6270    0.0480    2.4150 oh        1 MOL     -0.702636
    174 H79         0.9590   -0.6110    2.5970 ho        1 MOL      0.344600
    175 H80         1.9920    0.2640    3.2740 ho        1 MOL      0.344600
@<TRIPOS>BOND
     1    1    2 1   
     2    1    4 1   
     3    1    5 1   
     4    1    6 1   
     5    2    3 2   
     6    2    7 1   
     7    7    8 1   
     8    7   15 1   
     9    8    9 1   
    10    8   11 1   
    11    8   16 1   
    12    9   10 2   
    13    9   19 1   
    14   11   12 1   
    15   11   17 1   
    16   11   18 1   
    17   12   13 1   
    18   12   14 1   
    19   19   20 1   
    20   19   24 1   
    21   20   21 1   
    22   20   23 1   
    23   20   25 1   
    24   21   22 2   
    25   21   29 1   
    26   23   26 1   
    27   23   27 1   
    28   23   28 1   
    29   29   30 1   
    30   29   37 1   
    31   30   31 1   
    32   30   33 1   
    33   30   38 1   
    34   31   32 2   
    35   31   41 1   
    36   33   34 1   
    37   33   39 1   
    38   33   40 1   
    39   34   35 1   
    40   34   36 1   
    41   41   42 1   
    42   41   45 1   
    43   42   43 1   
    44   42   46 1   
    45   42   47 1   
    46   43   44 2   
    47   43   48 1   
    48   48   49 1   
    49   48   56 1   
    50   49   50 1   
    51   49   52 1   
    52   49   57 1   
    53   50   51 2   
    54   50   62 1   
    55   52   53 1   
    56   52   58 1   
    57   52   59 1   
    58   53   54 1   
    59   53   55 2   
    60   54   60 1   
    61   54   61 1   
    62   62   63 1   
    63   62   66 1   
    64   63   64 1   
    65   63   67 1   
    66   63   68 1   
    67   64   65 2   
    68   64   69 1   
    69   69   70 1   
    70   69   76 1   
    71   70   71 1   
    72   70   73 1   
    73   70   77 1   
    74   71   72 2   
    75   71   83 1   
    76   73   74 1   
    77   73   75 1   
    78   73   78 1   
    79   74   80 1   
    80   74   81 1   
    81   74   82 1   
    82   75   79 1   
    83   83   84 1   
    84   83   91 1   
    85   84   85 1   
    86   84   87 1   
    87   84   92 1   
    88   85   86 2   
    89   85  102 1   
    90   87   88 1   
    91   87   89 1   
    92   87   93 1   
    93   88   90 1   
    94   88   94 1   
    95   88   95 1   
    96   89   96 1   
    97   89   97 1   
    98   89   98 1   
    99   90   99 1   
   100   90  100 1   
   101   90  101 1   
   102  102  103 1   
   103  102  110 1   
   104  103  104 1   
   105  103  106 1   
   106  103  111 1   
   107  104  105 2   
   108  104  114 1   
   109  106  107 1   
   110  106  112 1   
   111  106  113 1   
   112  107  108 1   
   113  107  109 1   
   114  114  115 1   
   115  114  125 1   
   116  115  116 1   
   117  115  118 1   
   118  115  126 1   
   119  116  117 2   
   120  116  134 1   
   121  118  119 1   
   122  118  127 1   
   123  118  128 1   
   124  119  120 ar  
   125  119  121 ar  
   126  120  122 ar  
   127  120  129 1   
   128  121  123 ar  
   129  121  130 1   
   130  122  124 ar  
   131  122  131 1   
   132  123  124 ar  
   133  123  132 1   
   134  124  133 1   
   135  134  135 1   
   136  134  140 1   
   137  135  136 1   
   138  135  138 1   
   139  135  141 1   
   140  136  137 2   
   141  136  148 1   
   142  138  139 1   
   143  138  142 1   
   144  138  143 1   
   145  139  140 1   
   146  139  144 1   
   147  139  145 1   
   148  140  146 1   
   149  140  147 1   
   150  148  149 1   
   151  148  157 1   
   152  149  150 1   
   153  149  152 1   
   154  149  158 1   
   155  150  151 2   
   156  150  163 1   
   157  152  153 1   
   158  152  159 1   
   159  152  160 1   
   160  153  154 1   
   161  153  161 1   
   162  153  162 1   
   163  154  155 1   
   164  154  156 1   
   165  163  164 1   
   166  163  168 1   
   167  164  165 1   
   168  164  166 1   
   169  164  167 1   
   170  170  171 1   
   171  170  172 1   
   172  173  174 1   
   173  173  175 1   
@<TRIPOS>SUBSTRUCTURE
     1 MOL         1 TEMP              0 ****  ****    0 ROOT
