@<TRIPOS>MOLECULE
MOL
  189   185     1     0     0
SMALL
resp


@<TRIPOS>ATOM
      1 C1         -0.4900   -4.8010    5.7770 c3        1 MOL     -0.339902
      2 C2          0.1700   -4.0090    4.5600 c         1 MOL      0.720911
      3 O1          0.4880   -2.8400    4.6060 o         1 MOL     -0.593378
      4 H1         -1.0600   -5.6470    5.3930 hc        1 MOL      0.085125
      5 H2          0.2930   -5.1630    6.4430 hc        1 MOL      0.085125
      6 H3         -1.1560   -4.1360    6.3270 hc        1 MOL      0.085125
      7 N1          0.4700   -4.7510    3.4930 n         1 MOL     -0.602333
      8 C3          1.2210   -4.2340    2.3260 c3        1 MOL      0.185936
      9 C4          0.9950   -5.2050    1.1610 c         1 MOL      0.396443
     10 O2          0.8490   -6.4430    1.3540 o         1 MOL     -0.570634
     11 C5          2.7180   -4.1550    2.6350 c3        1 MOL     -0.189007
     12 C6          3.6140   -3.5260    1.5740 c         1 MOL      0.650889
     13 O3          4.8430   -3.6760    1.6720 o         1 MOL     -0.676222
     14 O4          3.1700   -2.8540    0.6080 o         1 MOL     -0.676222
     15 H4          0.3520   -5.7390    3.6000 hn        1 MOL      0.313579
     16 H5          0.8760   -3.2440    2.0340 h1        1 MOL      0.011244
     17 H6          3.0440   -5.1680    2.8610 hc        1 MOL      0.061467
     18 H7          2.9600   -3.6020    3.5450 hc        1 MOL      0.061467
     19 N2          0.9520   -4.6630   -0.0550 n         1 MOL     -0.015907
     20 C7          0.9350   -5.4580   -1.2830 c3        1 MOL     -0.218826
     21 C8          2.0650   -5.2110   -2.3220 c         1 MOL      0.443407
     22 O5          2.1230   -5.9450   -3.3620 o         1 MOL     -0.582175
     23 C9         -0.4510   -5.3830   -1.9930 c3        1 MOL      0.153598
     24 C10        -0.7280   -3.9960   -2.6230 c3        1 MOL      0.071083
     25 C11        -1.6660   -5.7390   -1.1130 c3        1 MOL     -0.260648
     26 C12        -1.9160   -3.9070   -3.6220 c3        1 MOL     -0.301815
     27 H8          0.7780   -3.6590   -0.0850 hn        1 MOL      0.195551
     28 H9          1.0110   -6.5060   -1.0100 h1        1 MOL      0.115229
     29 H10        -0.5000   -6.0490   -2.8490 hc        1 MOL     -0.000961
     30 H11         0.1270   -3.6450   -3.1870 hc        1 MOL      0.054494
     31 H12        -0.9210   -3.2670   -1.8400 hc        1 MOL      0.054494
     32 H13        -2.3950   -6.1790   -1.7860 hc        1 MOL      0.053693
     33 H14        -1.4190   -6.4430   -0.3200 hc        1 MOL      0.053693
     34 H15        -2.0200   -4.8450   -0.5950 hc        1 MOL      0.053693
     35 H16        -1.9210   -4.8040   -4.2500 hc        1 MOL      0.062025
     36 H17        -2.8800   -3.8440   -3.1290 hc        1 MOL      0.062025
     37 H18        -1.7990   -3.0460   -4.2750 hc        1 MOL      0.062025
     38 N3          2.9140   -4.2050   -2.1250 n         1 MOL     -0.304464
     39 C13         3.8750   -3.8040   -3.1390 c3        1 MOL      0.080817
     40 C14         5.2590   -3.4560   -2.6180 c         1 MOL      0.412065
     41 O6          6.2070   -3.5360   -3.3980 o         1 MOL     -0.536239
     42 C15         3.2420   -2.6390   -3.9790 c3        1 MOL     -0.300381
     43 C16         2.7240   -1.4140   -3.2400 c         1 MOL      0.769950
     44 O7          2.7450   -1.3530   -2.0100 o         1 MOL     -0.750721
     45 O8          2.2530   -0.4200   -3.9240 o         1 MOL     -0.750721
     46 H19         2.8710   -3.6930   -1.2530 hn        1 MOL      0.199215
     47 H20         4.1040   -4.6400   -3.8050 h1        1 MOL      0.083597
     48 H21         2.4570   -3.0270   -4.6270 hc        1 MOL      0.079944
     49 H22         4.0620   -2.2860   -4.6000 hc        1 MOL      0.079944
     50 N4          5.4580   -3.0690   -1.3160 n         1 MOL     -0.283193
     51 C17         6.8670   -2.7670   -0.9440 c3        1 MOL      0.025554
     52 C18         7.4280   -1.3690   -1.4440 c         1 MOL      0.339789
     53 O9          8.6720   -1.3380   -1.6080 o         1 MOL     -0.592876
     54 H23         4.6570   -2.8860   -0.7300 hn        1 MOL      0.207004
     55 H24         7.5330   -3.5590   -1.2740 h1        1 MOL      0.064022
     56 H25         6.9580   -2.8540    0.1400 h1        1 MOL      0.064022
     57 N5          6.6710   -0.3130   -1.6690 n         1 MOL     -0.077325
     58 C19         7.0920    0.9880   -2.1830 c3        1 MOL      0.051336
     59 C20         7.6570    1.8650   -1.0630 c         1 MOL      0.434224
     60 O10         8.4900    2.7040   -1.3100 o         1 MOL     -0.559299
     61 C21         5.9080    1.6270   -2.8700 c3        1 MOL     -0.485533
     62 C22         4.5950    1.7270   -1.9870 c         1 MOL      0.845917
     63 O11         4.4630    1.0620   -0.9060 o         1 MOL     -0.665963
     64 O12         3.7540    2.5050   -2.4310 o         1 MOL     -0.665963
     65 H26         5.7160   -0.4570   -1.3750 hn        1 MOL      0.184328
     66 H27         7.8540    0.8940   -2.9570 h1        1 MOL      0.094956
     67 H28         5.6030    1.0740   -3.7630 hc        1 MOL      0.129844
     68 H29         6.2080    2.6660   -2.9630 hc        1 MOL      0.129844
     69 N6          7.2310    1.6780    0.1520 n         1 MOL     -0.153297
     70 C23         7.4830    2.4610    1.3260 c3        1 MOL     -0.148099
     71 C24         6.3260    3.5240    1.7190 c         1 MOL      0.493909
     72 O13         6.6170    4.5080    2.3890 o         1 MOL     -0.573312
     73 H30         6.3580    1.1680    0.1690 hn        1 MOL      0.064876
     74 H31         8.4320    2.9690    1.1640 h1        1 MOL      0.095024
     75 H32         7.6160    1.7700    2.1630 h1        1 MOL      0.095024
     76 N7          5.1120    3.3840    1.2010 n         1 MOL     -0.279272
     77 C25         3.9340    4.1840    1.6300 c3        1 MOL     -0.166232
     78 C26         2.6470    3.2670    1.7540 c         1 MOL      0.653057
     79 O14         2.6920    2.0590    1.4760 o         1 MOL     -0.606087
     80 C27         3.6540    5.2210    0.4800 c3        1 MOL      0.260116
     81 C28         4.7420    6.2580    0.2450 c3        1 MOL     -0.243416
     82 C29         4.1480    7.5100   -0.5100 c         1 MOL      0.617481
     83 N8          3.6010    7.3200   -1.6630 n         1 MOL     -0.763016
     84 O15         4.0710    8.5730    0.0460 o         1 MOL     -0.569539
     85 H33         4.9300    2.5810    0.6200 hn        1 MOL      0.249917
     86 H34         4.1240    4.8280    2.4800 h1        1 MOL      0.126899
     87 H35         2.8480    5.9000    0.7400 hc        1 MOL     -0.026204
     88 H36         3.3980    4.7190   -0.4520 hc        1 MOL     -0.026204
     89 H37         5.3810    5.7680   -0.4930 hc        1 MOL      0.075601
     90 H38         5.2640    6.6300    1.1250 hc        1 MOL      0.075601
     91 H39         3.6930    6.4720   -2.2110 hn        1 MOL      0.354235
     92 H40         3.2370    8.1080   -2.1820 hn        1 MOL      0.354235
     93 N9          1.4630    3.8320    2.1680 n         1 MOL     -0.745985
     94 C30         0.2480    3.0870    2.3760 c3        1 MOL      0.446315
     95 C31        -0.8560    3.4300    1.3560 c         1 MOL      0.425461
     96 O16        -1.2250    4.6310    1.2350 o         1 MOL     -0.592619
     97 C32        -0.2430    3.2370    3.8220 c3        1 MOL      0.302695
     98 C33        -1.3260    2.2030    4.1440 c3        1 MOL     -0.349820
     99 C34         0.8360    3.1640    4.9510 c3        1 MOL     -0.349820
    100 H41         1.5050    4.8330    2.3080 hn        1 MOL      0.312945
    101 H42         0.4770    2.0470    2.1530 h1        1 MOL     -0.011527
    102 H43        -0.6150    4.2590    3.8720 hc        1 MOL     -0.055400
    103 H44        -1.6570    2.3510    5.1730 hc        1 MOL      0.070963
    104 H45        -2.2190    2.4300    3.5620 hc        1 MOL      0.070963
    105 H46        -0.9980    1.1800    3.9370 hc        1 MOL      0.070963
    106 H47         1.2600    2.1610    5.0110 hc        1 MOL      0.070963
    107 H48         1.6630    3.8600    4.8350 hc        1 MOL      0.070963
    108 H49         0.4050    3.3780    5.9280 hc        1 MOL      0.070963
    109 N10        -1.5120    2.3900    0.8530 n         1 MOL     -0.507616
    110 C35        -2.5840    2.6750   -0.0830 c3        1 MOL      0.689158
    111 C36        -3.9470    2.3350    0.5120 c         1 MOL     -0.298574
    112 O17        -3.9840    1.4730    1.3790 o         1 MOL      0.027986
    113 C37        -2.3630    2.0550   -1.4250 c3        1 MOL     -0.550455
    114 C38        -3.5900    2.1170   -2.3680 c         1 MOL      0.812074
    115 N11        -3.7500    3.1790   -3.0750 n         1 MOL     -0.732060
    116 O18        -4.3750    1.1960   -2.5450 o         1 MOL     -0.616562
    117 H50        -1.3270    1.4380    1.1180 hn        1 MOL      0.293218
    118 H51        -2.5020    3.7310   -0.3400 h1        1 MOL     -0.027408
    119 H52        -2.1620    0.9860   -1.3160 hc        1 MOL      0.140520
    120 H53        -1.5590    2.5660   -1.9380 hc        1 MOL      0.140520
    121 H54        -3.1890    3.9760   -2.7980 hn        1 MOL      0.317698
    122 H55        -4.6980    3.3030   -3.3990 hn        1 MOL      0.317698
    123 N12        -5.0550    2.9770    0.1360 n         1 MOL     -0.023724
    124 C39        -6.3720    2.7100    0.7860 c3        1 MOL      0.149258
    125 C40        -6.7730    1.2210    0.8550 c         1 MOL      0.294474
    126 O19        -7.4000    0.8270    1.8320 o         1 MOL     -0.540134
    127 C41        -7.4810    3.6120    0.0570 c3        1 MOL     -0.311571
    128 C42        -7.4170    3.5010   -1.4840 ca        1 MOL      0.030528
    129 C43        -6.7150    4.5440   -2.1540 ca        1 MOL     -0.113770
    130 C44        -7.9150    2.3900   -2.1690 ca        1 MOL     -0.113770
    131 C45        -6.6130    4.4880   -3.5340 ca        1 MOL     -0.350027
    132 C46        -7.6090    2.2860   -3.5260 ca        1 MOL     -0.350027
    133 C47        -7.0220    3.3580   -4.2260 ca        1 MOL      0.518727
    134 O20        -6.9170    3.2530   -5.5740 oh        1 MOL     -0.629690
    135 H56        -4.9920    3.6840   -0.5860 hn        1 MOL      0.062170
    136 H57        -6.2380    3.0500    1.8150 h1        1 MOL      0.043272
    137 H58        -7.2870    4.6730    0.2180 hc        1 MOL      0.103633
    138 H59        -8.4650    3.2710    0.3980 hc        1 MOL      0.103633
    139 H60        -6.4250    5.4300   -1.6000 ha        1 MOL      0.144957
    140 H61        -8.4680    1.5810   -1.7130 ha        1 MOL      0.144957
    141 H62        -6.1340    5.3020   -4.0440 ha        1 MOL      0.151101
    142 H63        -7.9230    1.4280   -4.1200 ha        1 MOL      0.151101
    143 H64        -7.1660    2.3940   -5.8980 ho        1 MOL      0.449655
    144 N13        -6.4460    0.3770   -0.1670 n         1 MOL      0.108228
    145 C48        -6.7140   -1.0860   -0.1490 c3        1 MOL     -0.461865
    146 C49        -5.9050   -1.8420    0.9400 c         1 MOL      0.578595
    147 O21        -6.2290   -2.9290    1.4020 o         1 MOL     -0.549100
    148 C50        -6.3390   -1.6610   -1.5150 c3        1 MOL      0.099255
    149 C51        -7.0840   -2.9080   -1.8880 c3        1 MOL     -0.103299
    150 C52        -8.6090   -2.7800   -1.9570 c         1 MOL      0.566496
    151 O22        -9.3020   -3.5980   -1.2870 o         1 MOL     -0.693990
    152 O23        -9.0790   -1.8110   -2.5960 o         1 MOL     -0.693990
    153 H65        -5.9160    0.7950   -0.9220 hn        1 MOL      0.245550
    154 H66        -7.7560   -1.2360    0.1390 h1        1 MOL      0.236461
    155 H67        -5.2830   -1.9140   -1.5750 hc        1 MOL      0.006607
    156 H68        -6.5940   -0.8390   -2.1840 hc        1 MOL      0.006607
    157 H69        -6.7630   -3.8090   -1.3620 hc        1 MOL      0.006554
    158 H70        -6.6440   -3.1620   -2.8490 hc        1 MOL      0.006554
    159 N14        -4.8550   -1.2360    1.4110 n         1 MOL     -0.164773
    160 C53        -3.9590   -1.7080    2.4970 c3        1 MOL     -0.089403
    161 C54        -4.4370   -1.2310    3.8460 c         1 MOL      0.503586
    162 O24        -4.4550   -1.9520    4.7990 o         1 MOL     -0.545492
    163 C55        -2.4650   -1.2820    2.2640 c3        1 MOL      0.015365
    164 C56        -1.8600   -1.8020    0.9280 c3        1 MOL     -0.051192
    165 C57        -0.4340   -1.2550    0.6960 c         1 MOL      0.882060
    166 O25         0.2310   -1.7610   -0.2460 o         1 MOL     -0.808846
    167 O26         0.0720   -0.2410    1.2330 o         1 MOL     -0.808846
    168 H71        -4.5700   -0.4350    0.8570 hn        1 MOL      0.010903
    169 H72        -4.0680   -2.7850    2.6380 h1        1 MOL      0.085456
    170 H73        -1.8320   -1.6580    3.0740 hc        1 MOL     -0.003640
    171 H74        -2.3800   -0.1970    2.2380 hc        1 MOL     -0.003640
    172 H75        -2.4010   -1.3770    0.0900 hc        1 MOL      0.001753
    173 H76        -1.8730   -2.8940    0.9350 hc        1 MOL      0.001753
    174 N15        -4.6530    0.1190    3.9150 n         1 MOL     -0.098929
    175 C58        -5.1430    0.7760    5.1500 c3        1 MOL     -0.286948
    176 H77        -4.6800    1.7580    5.2460 h1        1 MOL      0.097686
    177 H78        -6.2260    0.8900    5.0960 h1        1 MOL      0.097686
    178 H79        -4.8830    0.1670    6.0150 h1        1 MOL      0.097686
    179 H80        -4.5100    0.6250    3.0570 hn        1 MOL      0.033961
    180 Ca1         2.5510   -0.3010    0.3700 Ca        1 MOL      1.780017
    181 O27         2.4830   -0.9230    3.2650 oh        1 MOL     -0.898017
    182 H81         2.8320   -0.2950    3.9050 ho        1 MOL      0.421821
    183 H82         1.8440   -1.4420    3.7640 ho        1 MOL      0.421821
    184 O28         5.3050   -0.9340    1.0360 oh        1 MOL     -0.898017
    185 H83         5.5980   -0.5680    1.8670 ho        1 MOL      0.421821
    186 H84         5.1460   -1.8640    1.2220 ho        1 MOL      0.421821
    187 O29         1.6050    1.5650   -1.4510 oh        1 MOL     -0.898017
    188 H85         2.3090    1.8930   -2.0030 ho        1 MOL      0.421821
    189 H86         0.9720    1.1760   -2.0660 ho        1 MOL      0.421821
@<TRIPOS>BOND
     1    1    2 1   
     2    1    4 1   
     3    1    5 1   
     4    1    6 1   
     5    2    3 2   
     6    2    7 1   
     7    7    8 1   
     8    7   15 1   
     9    8    9 1   
    10    8   11 1   
    11    8   16 1   
    12    9   10 2   
    13    9   19 1   
    14   11   12 1   
    15   11   17 1   
    16   11   18 1   
    17   12   13 1   
    18   12   14 1   
    19   19   20 1   
    20   19   27 1   
    21   20   21 1   
    22   20   23 1   
    23   20   28 1   
    24   21   22 2   
    25   21   38 1   
    26   23   24 1   
    27   23   25 1   
    28   23   29 1   
    29   24   26 1   
    30   24   30 1   
    31   24   31 1   
    32   25   32 1   
    33   25   33 1   
    34   25   34 1   
    35   26   35 1   
    36   26   36 1   
    37   26   37 1   
    38   38   39 1   
    39   38   46 1   
    40   39   40 1   
    41   39   42 1   
    42   39   47 1   
    43   40   41 2   
    44   40   50 1   
    45   42   43 1   
    46   42   48 1   
    47   42   49 1   
    48   43   44 1   
    49   43   45 1   
    50   50   51 1   
    51   50   54 1   
    52   51   52 1   
    53   51   55 1   
    54   51   56 1   
    55   52   53 2   
    56   52   57 1   
    57   57   58 1   
    58   57   65 1   
    59   58   59 1   
    60   58   61 1   
    61   58   66 1   
    62   59   60 2   
    63   59   69 1   
    64   61   62 1   
    65   61   67 1   
    66   61   68 1   
    67   62   63 1   
    68   62   64 1   
    69   69   70 1   
    70   69   73 1   
    71   70   71 1   
    72   70   74 1   
    73   70   75 1   
    74   71   72 2   
    75   71   76 1   
    76   76   77 1   
    77   76   85 1   
    78   77   78 1   
    79   77   80 1   
    80   77   86 1   
    81   78   79 2   
    82   78   93 1   
    83   80   81 1   
    84   80   87 1   
    85   80   88 1   
    86   81   82 1   
    87   81   89 1   
    88   81   90 1   
    89   82   83 1   
    90   82   84 2   
    91   83   91 1   
    92   83   92 1   
    93   93   94 1   
    94   93  100 1   
    95   94   95 1   
    96   94   97 1   
    97   94  101 1   
    98   95   96 2   
    99   95  109 1   
   100   97   98 1   
   101   97   99 1   
   102   97  102 1   
   103   98  103 1   
   104   98  104 1   
   105   98  105 1   
   106   99  106 1   
   107   99  107 1   
   108   99  108 1   
   109  109  110 1   
   110  109  117 1   
   111  110  111 1   
   112  110  113 1   
   113  110  118 1   
   114  111  112 2   
   115  111  123 1   
   116  113  114 1   
   117  113  119 1   
   118  113  120 1   
   119  114  115 1   
   120  114  116 2   
   121  115  121 1   
   122  115  122 1   
   123  123  124 1   
   124  123  135 1   
   125  124  125 1   
   126  124  127 1   
   127  124  136 1   
   128  125  126 2   
   129  125  144 1   
   130  127  128 1   
   131  127  137 1   
   132  127  138 1   
   133  128  129 ar  
   134  128  130 ar  
   135  129  131 ar  
   136  129  139 1   
   137  130  132 ar  
   138  130  140 1   
   139  131  133 ar  
   140  131  141 1   
   141  132  133 ar  
   142  132  142 1   
   143  133  134 1   
   144  134  143 1   
   145  144  145 1   
   146  144  153 1   
   147  145  146 1   
   148  145  148 1   
   149  145  154 1   
   150  146  147 2   
   151  146  159 1   
   152  148  149 1   
   153  148  155 1   
   154  148  156 1   
   155  149  150 1   
   156  149  157 1   
   157  149  158 1   
   158  150  151 1   
   159  150  152 1   
   160  159  160 1   
   161  159  168 1   
   162  160  161 1   
   163  160  163 1   
   164  160  169 1   
   165  161  162 2   
   166  161  174 1   
   167  163  164 1   
   168  163  170 1   
   169  163  171 1   
   170  164  165 1   
   171  164  172 1   
   172  164  173 1   
   173  165  166 1   
   174  165  167 1   
   175  174  175 1   
   176  174  179 1   
   177  175  176 1   
   178  175  177 1   
   179  175  178 1   
   180  181  182 1   
   181  181  183 1   
   182  184  185 1   
   183  184  186 1   
   184  187  188 1   
   185  187  189 1   
@<TRIPOS>SUBSTRUCTURE
     1 MOL         1 TEMP              0 ****  ****    0 ROOT
