@<TRIPOS>MOLECULE
MOL
  182   178     1     0     0
SMALL
resp


@<TRIPOS>ATOM
      1 C1         -0.6040   -2.8760    6.5330 c3        1 MOL     -0.252836
      2 C2         -0.3460   -2.3030    5.1100 c         1 MOL      0.694616
      3 O1         -1.2950   -2.2890    4.3490 o         1 MOL     -0.575670
      4 H1         -1.6620   -3.1160    6.6410 hc        1 MOL      0.061572
      5 H2         -0.0120   -3.7800    6.6750 hc        1 MOL      0.061572
      6 H3         -0.3220   -2.1350    7.2810 hc        1 MOL      0.061572
      7 N1          0.8830   -2.0100    4.7310 n         1 MOL     -0.514249
      8 C3          1.3590   -2.0560    3.3650 c3        1 MOL      0.036276
      9 C4          1.2940   -3.4630    2.7900 c         1 MOL      0.518728
     10 O2          1.9410   -4.4330    3.1970 o         1 MOL     -0.562849
     11 C5          2.7220   -1.4170    3.2740 c3        1 MOL     -0.014434
     12 C6          3.1960   -0.9980    1.9340 c         1 MOL      0.691657
     13 O3          2.6320   -1.3480    0.8190 o         1 MOL     -0.746299
     14 O4          4.1810   -0.2110    1.9070 o         1 MOL     -0.746299
     15 H4          1.6300   -1.9000    5.4040 hn        1 MOL      0.277155
     16 H5          0.7070   -1.4420    2.7460 h1        1 MOL      0.021578
     17 H6          3.4980   -2.0550    3.6870 hc        1 MOL      0.034873
     18 H7          2.8000   -0.5280    3.8990 hc        1 MOL      0.034873
     19 N2          0.5080   -3.6710    1.6990 n         1 MOL     -0.117330
     20 C7          0.2730   -4.9790    0.9400 c3        1 MOL     -0.365752
     21 C8          1.6100   -5.5500    0.3450 c         1 MOL      0.670940
     22 O5          1.8360   -6.7750    0.3500 o         1 MOL     -0.572802
     23 C9         -0.8180   -4.7030   -0.1440 c3        1 MOL      0.161250
     24 C10        -1.1430   -5.9520   -0.9680 c3        1 MOL     -0.556569
     25 C11        -2.5110   -5.9980   -1.7400 c3        1 MOL      0.246030
     26 C12        -2.5910   -7.2050   -2.6950 c3        1 MOL      0.063626
     27 N3         -3.4500   -6.9800   -3.8670 n4        1 MOL     -0.476746
     28 H8          0.0720   -2.8410    1.3160 hn        1 MOL      0.067525
     29 H9         -0.1480   -5.6380    1.7020 h1        1 MOL      0.181461
     30 H10        -0.7120   -3.8620   -0.8210 hc        1 MOL      0.068905
     31 H11        -1.7180   -4.5050    0.4340 hc        1 MOL      0.068905
     32 H12        -1.2770   -6.7710   -0.2640 hc        1 MOL      0.149691
     33 H13        -0.3500   -6.1300   -1.7000 hc        1 MOL      0.149691
     34 H14        -2.6040   -5.1200   -2.3750 hc        1 MOL     -0.014539
     35 H15        -3.4050   -6.0040   -1.1140 hc        1 MOL     -0.014539
     36 H16        -3.0700   -7.9930   -2.1150 hx        1 MOL      0.072492
     37 H17        -1.6080   -7.5900   -2.9490 hx        1 MOL      0.072492
     38 H18        -2.8700   -6.4750   -4.5210 hn        1 MOL      0.357198
     39 H19        -3.6200   -7.8290   -4.3750 hn        1 MOL      0.357198
     40 H20        -4.3560   -6.6220   -3.5980 hn        1 MOL      0.357198
     41 N4          2.4880   -4.6490   -0.1960 n         1 MOL     -0.469790
     42 C13         3.6130   -5.1300   -1.0350 c3        1 MOL      0.085009
     43 C14         4.9360   -4.5790   -0.5200 c         1 MOL      0.462088
     44 O6          5.9910   -4.9880   -0.9800 o         1 MOL     -0.552717
     45 C15         3.2460   -4.7670   -2.4920 c3        1 MOL     -0.261544
     46 C16         2.7040   -3.3030   -2.7880 c         1 MOL      0.843736
     47 O7          2.7880   -2.4710   -1.8660 o         1 MOL     -0.750769
     48 O8          2.1040   -3.0970   -3.8090 o         1 MOL     -0.750769
     49 H21         2.1660   -3.6950   -0.2790 hn        1 MOL      0.288562
     50 H22         3.6650   -6.2180   -1.0190 h1        1 MOL      0.104711
     51 H23         2.5200   -5.4870   -2.8670 hc        1 MOL      0.057647
     52 H24         4.1920   -4.9080   -3.0250 hc        1 MOL      0.057647
     53 N5          4.8640   -3.6610    0.4300 n         1 MOL     -0.107817
     54 C17         6.0150   -3.0980    1.1020 c3        1 MOL     -0.347246
     55 C18         6.5330   -1.8470    0.4490 c         1 MOL      0.629098
     56 O9          7.6130   -1.3790    0.8000 o         1 MOL     -0.576555
     57 H25         3.9480   -3.2780    0.6110 hn        1 MOL      0.101424
     58 H26         6.7800   -3.8520    1.3250 h1        1 MOL      0.163293
     59 H27         5.7200   -2.7350    2.0890 h1        1 MOL      0.163293
     60 N6          5.8400   -1.2630   -0.5710 n         1 MOL     -0.378051
     61 C19         6.3430   -0.2040   -1.4660 c3        1 MOL      0.007387
     62 C20         6.4240    1.2410   -0.8020 c         1 MOL      0.350085
     63 O10         6.9110    2.1740   -1.3900 o         1 MOL     -0.516771
     64 C21         5.5530   -0.1700   -2.7790 c3        1 MOL     -0.113922
     65 C22         4.4410    0.8460   -2.7430 c         1 MOL      0.338021
     66 N7          4.4070    1.7850   -3.6560 n         1 MOL     -0.532357
     67 O11         3.6340    0.9500   -1.8050 o         1 MOL     -0.467601
     68 H28         4.9690   -1.7360   -0.7540 hn        1 MOL      0.251181
     69 H29         7.3830   -0.4330   -1.6810 h1        1 MOL      0.117459
     70 H30         5.0750   -1.1460   -2.8980 hc        1 MOL      0.079108
     71 H31         6.1900   -0.0510   -3.6500 hc        1 MOL      0.079108
     72 H32         5.0230    1.6410   -4.4420 hn        1 MOL      0.308013
     73 H33         3.6590    2.4580   -3.6840 hn        1 MOL      0.308013
     74 N8          5.8760    1.4300    0.3740 n         1 MOL     -0.105922
     75 C23         6.0430    2.6500    1.1140 c3        1 MOL     -0.139145
     76 C24         4.7400    3.4090    1.3560 c         1 MOL      0.521543
     77 O12         4.8110    4.3780    2.1270 o         1 MOL     -0.555404
     78 H34         5.3470    0.6800    0.7820 hn        1 MOL      0.263079
     79 H35         6.6500    3.3670    0.5740 h1        1 MOL      0.103707
     80 H36         6.6070    2.5250    2.0440 h1        1 MOL      0.103707
     81 N9          3.6350    2.9670    0.7560 n         1 MOL     -0.175834
     82 C25         2.3960    3.7700    0.7350 c3        1 MOL      0.004834
     83 C26         1.1660    2.9100    0.8360 c         1 MOL      0.597511
     84 O13         1.1990    1.7560    0.5410 o         1 MOL     -0.554079
     85 C27         2.2740    4.6270   -0.5340 c3        1 MOL      0.180388
     86 C28         3.4010    5.6720   -0.6110 ca        1 MOL     -0.030198
     87 C29         4.4540    5.3680   -1.3810 ca        1 MOL     -0.236336
     88 C30         3.4010    6.8510    0.0970 ca        1 MOL     -0.236336
     89 C31         5.6090    6.1910   -1.3680 ca        1 MOL     -0.151548
     90 C32         4.4720    7.7760   -0.0050 ca        1 MOL     -0.151548
     91 C33         5.6470    7.4460   -0.7380 ca        1 MOL      0.299868
     92 O14         6.6860    8.2960   -0.9730 oh        1 MOL     -0.498906
     93 H37         3.5120    2.0560    0.3440 hn        1 MOL      0.080753
     94 H38         2.3790    4.4400    1.6030 h1        1 MOL      0.048659
     95 H39         1.3010    5.1160   -0.5830 hc        1 MOL     -0.032169
     96 H40         2.2620    4.0450   -1.4580 hc        1 MOL     -0.032169
     97 H41         4.5760    4.4530   -1.9430 ha        1 MOL      0.152778
     98 H42         2.6050    7.1410    0.7650 ha        1 MOL      0.152778
     99 H43         6.4550    5.9320   -1.9800 ha        1 MOL      0.105991
    100 H44         4.3190    8.8030    0.3120 ha        1 MOL      0.105991
    101 H45         6.5380    9.2120   -0.7260 ho        1 MOL      0.376104
    102 N10        -0.0250    3.4890    1.2540 n         1 MOL     -0.583378
    103 C34        -1.3070    2.7760    1.2620 c3        1 MOL      0.054105
    104 C35        -2.4830    3.5560    0.5060 c         1 MOL      0.447410
    105 O15        -2.8100    4.7490    0.7900 o         1 MOL     -0.528641
    106 C36        -1.6640    2.5350    2.6910 c3        1 MOL     -0.048713
    107 C37        -0.6370    1.6070    3.3110 c3        1 MOL      0.131819
    108 C38        -3.0470    1.9540    2.8550 c3        1 MOL     -0.131861
    109 C39        -0.7390    1.2960    4.8040 c3        1 MOL     -0.502682
    110 H46        -0.0250    4.4110    1.6670 hn        1 MOL      0.316865
    111 H47        -1.2160    1.8090    0.7740 h1        1 MOL      0.077922
    112 H48        -1.5390    3.4320    3.2960 hc        1 MOL      0.042823
    113 H49         0.3990    1.8840    3.1280 hc        1 MOL      0.049242
    114 H50        -0.6620    0.6360    2.8060 hc        1 MOL      0.049242
    115 H51        -3.2740    1.8100    3.9160 hc        1 MOL      0.041025
    116 H52        -3.8050    2.6060    2.4330 hc        1 MOL      0.041025
    117 H53        -3.1600    0.9850    2.3730 hc        1 MOL      0.041025
    118 H54        -0.9890    2.2100    5.3420 hc        1 MOL      0.119331
    119 H55        -1.5780    0.6310    5.0340 hc        1 MOL      0.119331
    120 H56         0.2410    0.9020    5.0680 hc        1 MOL      0.119331
    121 N11        -3.2250    2.9050   -0.4020 n         1 MOL     -0.296489
    122 C40        -4.4120    3.4480   -1.1080 c3        1 MOL      0.000785
    123 C41        -5.7310    3.1400   -0.4810 c         1 MOL      0.571767
    124 O16        -5.8440    2.2530    0.3900 o         1 MOL     -0.424437
    125 C42        -4.4050    2.9730   -2.5810 c3        1 MOL     -0.222537
    126 O17        -4.7350    1.6670   -2.7170 oh        1 MOL     -0.460193
    127 H57        -2.9170    1.9860   -0.6670 hn        1 MOL      0.319164
    128 H58        -4.3860    4.5350   -1.0430 h1        1 MOL      0.078579
    129 H59        -3.4240    3.0550   -3.0520 h1        1 MOL      0.117635
    130 H60        -5.1590    3.5410   -3.1160 h1        1 MOL      0.117635
    131 H61        -5.2210    1.5990   -3.5460 ho        1 MOL      0.407830
    132 N12        -6.7880    3.8720   -0.8310 n         1 MOL     -0.443367
    133 C43        -8.1530    3.6170   -0.3040 c3        1 MOL      0.057560
    134 C44        -8.8250    2.1980   -0.5030 c         1 MOL      0.514721
    135 O18        -9.6680    1.8280    0.2710 o         1 MOL     -0.492516
    136 C45        -9.0820    4.8260   -0.6870 c3        1 MOL     -0.289871
    137 H62        -6.6860    4.6660   -1.4480 hn        1 MOL      0.293941
    138 H63        -8.1670    3.6790    0.7790 h1        1 MOL      0.090783
    139 H64        -8.6200    5.7800   -0.4070 hc        1 MOL      0.097005
    140 H65        -9.2090    4.7410   -1.7670 hc        1 MOL      0.097005
    141 H66       -10.0510    4.8810   -0.2060 hc        1 MOL      0.097005
    142 N13        -8.3320    1.3850   -1.5010 n         1 MOL     -0.440599
    143 C46        -8.5980   -0.0030   -1.7530 c3        1 MOL      0.321292
    144 C47        -7.5780   -0.9340   -1.0220 c         1 MOL      0.303209
    145 O19        -7.9980   -2.0080   -0.5640 o         1 MOL     -0.512203
    146 C48        -8.6550   -0.2240   -3.2390 c3        1 MOL     -0.373168
    147 H67        -7.4960    1.6540   -2.0040 hn        1 MOL      0.217423
    148 H68        -9.5610   -0.2660   -1.3160 h1        1 MOL      0.065381
    149 H69        -7.8080    0.2740   -3.6950 hc        1 MOL      0.091033
    150 H70        -8.5150   -1.2740   -3.4730 hc        1 MOL      0.091033
    151 H71        -9.5990    0.1460   -3.6320 hc        1 MOL      0.091033
    152 N14        -6.3130   -0.5820   -0.8640 n         1 MOL     -0.083922
    153 C49        -5.3460   -1.2970   -0.0530 c3        1 MOL     -0.084563
    154 C50        -5.6160   -1.3050    1.4400 c         1 MOL      0.473756
    155 O20        -5.6730   -2.4010    2.0550 o         1 MOL     -0.524659
    156 C51        -4.0030   -0.6550   -0.3380 c3        1 MOL     -0.156717
    157 C52        -2.8230   -1.4460    0.2350 c3        1 MOL     -0.057458
    158 C53        -1.4340   -0.8510   -0.0920 c         1 MOL      0.703981
    159 O21        -1.3540    0.0870   -0.9550 o         1 MOL     -0.668870
    160 O22        -0.4100   -1.3420    0.4880 o         1 MOL     -0.668870
    161 H72        -6.0630    0.3510   -1.1610 hn        1 MOL     -0.011450
    162 H73        -5.3110   -2.3430   -0.3490 h1        1 MOL      0.086021
    163 H74        -3.9150    0.3840    0.0030 hc        1 MOL      0.044718
    164 H75        -3.8540   -0.6010   -1.4160 hc        1 MOL      0.044718
    165 H76        -2.9090   -2.4940   -0.0540 hc        1 MOL      0.039841
    166 H77        -2.8200   -1.6160    1.3060 hc        1 MOL      0.039841
    167 N15        -6.0460   -0.1280    2.0520 n         1 MOL     -0.069899
    168 C54        -6.3740    0.0370    3.4420 c3        1 MOL     -0.324396
    169 H78        -6.8880    0.9870    3.5830 h1        1 MOL      0.119551
    170 H79        -7.0220   -0.7780    3.7620 h1        1 MOL      0.119551
    171 H80        -5.4590    0.0280    4.0340 h1        1 MOL      0.119551
    172 H81        -6.0950    0.6900    1.4590 hn        1 MOL      0.143058
    173 Ca1         1.2300   -0.3140   -1.2090 Ca        1 MOL      1.759033
    174 O23        -0.3130   -2.1130   -2.5280 oh        1 MOL     -0.889250
    175 H82         0.4220   -2.7200   -2.6360 ho        1 MOL      0.418007
    176 H83        -0.6720   -2.0060   -3.4160 ho        1 MOL      0.418007
    177 O24         1.7260   -0.5220   -3.8110 oh        1 MOL     -0.889250
    178 H84         1.7170   -1.4820   -3.8940 ho        1 MOL      0.418007
    179 H85         2.2640   -0.2200   -4.5490 ho        1 MOL      0.418007
    180 O25         0.8060    2.1990   -2.5310 oh        1 MOL     -0.889250
    181 H86         1.4430    2.5350   -3.1690 ho        1 MOL      0.418007
    182 H87         0.1840    2.9160   -2.4280 ho        1 MOL      0.418007
@<TRIPOS>BOND
     1    1    2 1   
     2    1    4 1   
     3    1    5 1   
     4    1    6 1   
     5    2    3 2   
     6    2    7 1   
     7    7    8 1   
     8    7   15 1   
     9    8    9 1   
    10    8   11 1   
    11    8   16 1   
    12    9   10 2   
    13    9   19 1   
    14   11   12 1   
    15   11   17 1   
    16   11   18 1   
    17   12   13 1   
    18   12   14 1   
    19   19   20 1   
    20   19   28 1   
    21   20   21 1   
    22   20   23 1   
    23   20   29 1   
    24   21   22 2   
    25   21   41 1   
    26   23   24 1   
    27   23   30 1   
    28   23   31 1   
    29   24   25 1   
    30   24   32 1   
    31   24   33 1   
    32   25   26 1   
    33   25   34 1   
    34   25   35 1   
    35   26   27 1   
    36   26   36 1   
    37   26   37 1   
    38   27   38 1   
    39   27   39 1   
    40   27   40 1   
    41   41   42 1   
    42   41   49 1   
    43   42   43 1   
    44   42   45 1   
    45   42   50 1   
    46   43   44 2   
    47   43   53 1   
    48   45   46 1   
    49   45   51 1   
    50   45   52 1   
    51   46   47 1   
    52   46   48 1   
    53   53   54 1   
    54   53   57 1   
    55   54   55 1   
    56   54   58 1   
    57   54   59 1   
    58   55   56 2   
    59   55   60 1   
    60   60   61 1   
    61   60   68 1   
    62   61   62 1   
    63   61   64 1   
    64   61   69 1   
    65   62   63 2   
    66   62   74 1   
    67   64   65 1   
    68   64   70 1   
    69   64   71 1   
    70   65   66 1   
    71   65   67 2   
    72   66   72 1   
    73   66   73 1   
    74   74   75 1   
    75   74   78 1   
    76   75   76 1   
    77   75   79 1   
    78   75   80 1   
    79   76   77 2   
    80   76   81 1   
    81   81   82 1   
    82   81   93 1   
    83   82   83 1   
    84   82   85 1   
    85   82   94 1   
    86   83   84 2   
    87   83  102 1   
    88   85   86 1   
    89   85   95 1   
    90   85   96 1   
    91   86   87 ar  
    92   86   88 ar  
    93   87   89 ar  
    94   87   97 1   
    95   88   90 ar  
    96   88   98 1   
    97   89   91 ar  
    98   89   99 1   
    99   90   91 ar  
   100   90  100 1   
   101   91   92 1   
   102   92  101 1   
   103  102  103 1   
   104  102  110 1   
   105  103  104 1   
   106  103  106 1   
   107  103  111 1   
   108  104  105 2   
   109  104  121 1   
   110  106  107 1   
   111  106  108 1   
   112  106  112 1   
   113  107  109 1   
   114  107  113 1   
   115  107  114 1   
   116  108  115 1   
   117  108  116 1   
   118  108  117 1   
   119  109  118 1   
   120  109  119 1   
   121  109  120 1   
   122  121  122 1   
   123  121  127 1   
   124  122  123 1   
   125  122  125 1   
   126  122  128 1   
   127  123  124 2   
   128  123  132 1   
   129  125  126 1   
   130  125  129 1   
   131  125  130 1   
   132  126  131 1   
   133  132  133 1   
   134  132  137 1   
   135  133  134 1   
   136  133  136 1   
   137  133  138 1   
   138  134  135 2   
   139  134  142 1   
   140  136  139 1   
   141  136  140 1   
   142  136  141 1   
   143  142  143 1   
   144  142  147 1   
   145  143  144 1   
   146  143  146 1   
   147  143  148 1   
   148  144  145 2   
   149  144  152 1   
   150  146  149 1   
   151  146  150 1   
   152  146  151 1   
   153  152  153 1   
   154  152  161 1   
   155  153  154 1   
   156  153  156 1   
   157  153  162 1   
   158  154  155 2   
   159  154  167 1   
   160  156  157 1   
   161  156  163 1   
   162  156  164 1   
   163  157  158 1   
   164  157  165 1   
   165  157  166 1   
   166  158  159 1   
   167  158  160 1   
   168  167  168 1   
   169  167  172 1   
   170  168  169 1   
   171  168  170 1   
   172  168  171 1   
   173  174  175 1   
   174  174  176 1   
   175  177  178 1   
   176  177  179 1   
   177  180  181 1   
   178  180  182 1   
@<TRIPOS>SUBSTRUCTURE
     1 MOL         1 TEMP              0 ****  ****    0 ROOT
