@<TRIPOS>MOLECULE
MOL
  186   183     1     0     0
SMALL
resp


@<TRIPOS>ATOM
      1 C1          1.0500   -1.3220    6.3670 c3        1 MOL     -0.307272
      2 C2          1.3380   -1.4270    4.8810 c         1 MOL      0.839390
      3 O1          0.4470   -1.8630    4.1990 o         1 MOL     -0.623021
      4 H1          0.0390   -1.6760    6.5670 hc        1 MOL      0.063180
      5 H2          1.7630   -1.9340    6.9200 hc        1 MOL      0.063180
      6 H3          1.1400   -0.2830    6.6830 hc        1 MOL      0.063180
      7 N1          2.4940   -0.9700    4.3810 n         1 MOL     -0.744508
      8 C3          2.8150   -1.3510    2.9780 c3        1 MOL      0.544586
      9 C4          3.0610   -2.8980    2.8170 c         1 MOL      0.263563
     10 O2          3.6400   -3.5450    3.6560 o         1 MOL     -0.592747
     11 C5          3.9610   -0.5170    2.5140 c3        1 MOL     -0.341988
     12 C6          4.6630   -0.8860    1.2780 c         1 MOL      0.688969
     13 O3          5.8710   -0.7510    1.1810 o         1 MOL     -0.640337
     14 O4          4.0260   -1.1900    0.2310 o         1 MOL     -0.640337
     15 H4          3.3200   -0.8130    4.9530 hn        1 MOL      0.329244
     16 H5          2.0210   -1.1010    2.2660 h1        1 MOL     -0.098933
     17 H6          4.6760   -0.4970    3.3220 hc        1 MOL      0.050428
     18 H7          3.5780    0.5010    2.4760 hc        1 MOL      0.050428
     19 N2          2.6480   -3.4500    1.6840 n         1 MOL      0.014187
     20 C7          2.6930   -4.8430    1.3610 c3        1 MOL      0.053008
     21 C8          3.3520   -5.0480    0.0590 c         1 MOL      0.452942
     22 O5          3.4290   -6.2190   -0.4250 o         1 MOL     -0.567881
     23 C9          1.2740   -5.4820    1.5030 c3        1 MOL      0.102796
     24 C10         0.2920   -4.6860    2.3940 c3        1 MOL      0.192317
     25 C11         1.4510   -6.8620    2.1970 c3        1 MOL     -0.283017
     26 C12        -1.0940   -5.2970    2.4960 c3        1 MOL     -0.208049
     27 H8          2.0550   -2.8440    1.1400 hn        1 MOL      0.142737
     28 H9          3.3900   -5.3040    2.0530 h1        1 MOL      0.059483
     29 H10         0.8230   -5.5660    0.5180 hc        1 MOL      0.039275
     30 H11         0.1320   -3.7220    1.9060 hc        1 MOL     -0.017951
     31 H12         0.7760   -4.5230    3.3580 hc        1 MOL     -0.017951
     32 H13         0.5920   -7.4950    1.9790 hc        1 MOL      0.040736
     33 H14         2.3680   -7.3080    1.8140 hc        1 MOL      0.040736
     34 H15         1.5960   -6.7080    3.2640 hc        1 MOL      0.040736
     35 H16        -1.0810   -6.2330    3.0680 hc        1 MOL      0.036831
     36 H17        -1.7830   -4.6560    3.0480 hc        1 MOL      0.036831
     37 H18        -1.5680   -5.4490    1.5240 hc        1 MOL      0.036831
     38 N3          3.8980   -4.0220   -0.6510 n         1 MOL     -0.383434
     39 C13         4.3270   -4.2140   -2.0490 c3        1 MOL     -0.003307
     40 C14         5.6600   -3.4520   -2.4050 c         1 MOL      0.374756
     41 O6          6.1220   -3.4350   -3.5720 o         1 MOL     -0.519657
     42 C15         3.1540   -4.0650   -3.0470 c3        1 MOL     -0.029810
     43 C16         2.4690   -2.7280   -3.0900 c         1 MOL      0.790570
     44 O7          3.1300   -1.7030   -2.7610 o         1 MOL     -0.733004
     45 O8          1.2460   -2.7040   -3.4470 o         1 MOL     -0.733004
     46 H19         3.9450   -3.0820   -0.2870 hn        1 MOL      0.109377
     47 H20         4.5430   -5.2730   -2.1850 h1        1 MOL      0.075900
     48 H21         2.3150   -4.7490   -2.9390 hc        1 MOL      0.009462
     49 H22         3.5800   -4.1780   -4.0420 hc        1 MOL      0.009462
     50 N4          6.2590   -2.9300   -1.3930 n         1 MOL     -0.137238
     51 C17         7.5940   -2.4300   -1.3920 c3        1 MOL     -0.152203
     52 C18         7.8240   -0.9430   -1.8170 c         1 MOL      0.606850
     53 O9          8.8860   -0.6700   -2.3950 o         1 MOL     -0.613896
     54 H23         5.9420   -3.1560   -0.4600 hn        1 MOL      0.237589
     55 H24         8.2660   -2.9980   -2.0270 h1        1 MOL      0.068020
     56 H25         7.9980   -2.5330   -0.3790 h1        1 MOL      0.068020
     57 N5          7.0210    0.0650   -1.4030 n         1 MOL     -0.252835
     58 C19         7.2020    1.4720   -1.8160 c3        1 MOL      0.113728
     59 C20         7.1620    2.4820   -0.6530 c         1 MOL      0.328459
     60 O10         7.1230    3.7030   -0.7700 o         1 MOL     -0.501483
     61 C21         6.2280    1.8520   -2.8820 c3        1 MOL     -0.214452
     62 C22         4.7840    1.6990   -2.4970 c         1 MOL      0.817877
     63 O11         3.9040    1.6670   -3.3890 o         1 MOL     -0.749322
     64 O12         4.4660    1.6220   -1.3000 o         1 MOL     -0.749322
     65 H26         6.1520   -0.1530   -0.9300 hn        1 MOL      0.098685
     66 H27         8.2140    1.4630   -2.2170 h1        1 MOL      0.063454
     67 H28         6.4680    1.1600   -3.6800 hc        1 MOL      0.051434
     68 H29         6.4310    2.8700   -3.2190 hc        1 MOL      0.051434
     69 N6          7.1190    1.9280    0.5780 n         1 MOL     -0.266823
     70 C23         6.9840    2.8060    1.7800 c3        1 MOL      0.005137
     71 C24         5.6300    3.6460    1.8920 c         1 MOL      0.392759
     72 O13         5.6380    4.6290    2.6220 o         1 MOL     -0.556767
     73 H30         7.2800    0.9350    0.6330 hn        1 MOL      0.198721
     74 H31         7.8060    3.5220    1.8190 h1        1 MOL      0.051343
     75 H32         7.0690    2.2640    2.7150 h1        1 MOL      0.051343
     76 N7          4.6220    3.2820    1.0820 n         1 MOL     -0.170592
     77 C25         3.3410    3.9830    1.1330 c3        1 MOL      0.028646
     78 C26         2.1630    2.9900    1.2390 c         1 MOL      0.382050
     79 O14         2.3800    1.8150    0.8470 o         1 MOL     -0.573651
     80 C27         3.1720    4.8330   -0.1670 c3        1 MOL      0.045512
     81 C28         4.0290    6.0700   -0.3800 c3        1 MOL     -0.154157
     82 C29         3.3390    7.0970   -1.2870 c         1 MOL      0.644745
     83 N8          3.0700    6.8090   -2.5500 n         1 MOL     -0.825681
     84 O15         3.0110    8.1900   -0.8670 o         1 MOL     -0.584609
     85 H33         4.8020    2.4630    0.5240 hn        1 MOL      0.248409
     86 H34         3.2980    4.6700    1.9710 h1        1 MOL      0.037816
     87 H35         2.1220    5.0820   -0.0170 hc        1 MOL      0.000064
     88 H36         3.2940    4.2130   -1.0440 hc        1 MOL      0.000064
     89 H37         4.9900    5.8340   -0.8370 hc        1 MOL      0.058553
     90 H38         4.2020    6.5730    0.5710 hc        1 MOL      0.058553
     91 H39         3.3740    5.9210   -2.9420 hn        1 MOL      0.370150
     92 H40         2.7240    7.5720   -3.1130 hn        1 MOL      0.370150
     93 N9          1.0720    3.4210    1.7960 n         1 MOL     -0.242062
     94 C30        -0.1940    2.6320    2.0680 c3        1 MOL     -0.097084
     95 C31        -1.2240    3.0630    1.0490 c         1 MOL      0.362845
     96 O16        -1.6250    4.2380    1.0560 o         1 MOL     -0.553058
     97 C32        -0.8000    2.6850    3.4770 c3        1 MOL      0.159082
     98 C33        -1.5240    1.3760    3.8750 c3        1 MOL     -0.263275
     99 C34         0.2570    3.0230    4.5610 c3        1 MOL     -0.263275
    100 H41         1.1920    4.3520    2.1810 hn        1 MOL      0.270131
    101 H42         0.0350    1.5790    1.8830 h1        1 MOL      0.216741
    102 H43        -1.6450    3.3700    3.5050 hc        1 MOL      0.009872
    103 H44        -0.7470    0.6160    3.9160 hc        1 MOL      0.061611
    104 H45        -1.9340    1.5030    4.8750 hc        1 MOL      0.061611
    105 H46        -2.2890    1.3790    3.0950 hc        1 MOL      0.061611
    106 H47        -0.1280    3.0790    5.5810 hc        1 MOL      0.061611
    107 H48         1.0480    2.2690    4.5290 hc        1 MOL      0.061611
    108 H49         0.7660    3.9680    4.3710 hc        1 MOL      0.061611
    109 N10        -1.6110    2.1630    0.1270 n         1 MOL     -0.147951
    110 C35        -2.6540    2.3480   -0.7760 c3        1 MOL      0.075801
    111 C36        -4.0050    1.8580   -0.2660 c         1 MOL      0.315820
    112 O17        -4.0280    0.9600    0.5830 o         1 MOL     -0.190342
    113 C37        -2.1830    1.6560   -2.0660 c3        1 MOL     -0.374540
    114 C38        -3.2170    1.4870   -3.0730 c         1 MOL      0.571232
    115 N11        -3.5160    2.4410   -3.8930 n         1 MOL     -0.665887
    116 O18        -3.8140    0.4360   -3.2170 o         1 MOL     -0.473547
    117 H50        -1.1390    1.2740    0.0630 hn        1 MOL      0.268266
    118 H51        -2.8160    3.4150   -0.9550 h1        1 MOL      0.020648
    119 H52        -1.8120    0.6590   -1.8400 hc        1 MOL      0.157518
    120 H53        -1.3080    2.1810   -2.4540 hc        1 MOL      0.157518
    121 H54        -3.1300    3.3750   -3.8730 hn        1 MOL      0.315069
    122 H55        -4.4210    2.4010   -4.3560 hn        1 MOL      0.315069
    123 N12        -5.0750    2.3510   -0.8570 n         1 MOL     -0.448578
    124 C39        -6.4090    1.9070   -0.4080 c3        1 MOL      0.282581
    125 C40        -6.5690    0.4100   -0.3250 c         1 MOL      0.612339
    126 O19        -7.2160   -0.0120    0.5880 o         1 MOL     -0.549193
    127 C41        -7.5710    2.5850   -1.1350 c3        1 MOL     -0.236748
    128 C42        -8.8710    2.3500   -0.3810 ca        1 MOL     -0.040833
    129 C43        -9.1320    3.0120    0.8420 ca        1 MOL     -0.057163
    130 C44        -9.8030    1.4960   -0.9390 ca        1 MOL     -0.057163
    131 C45       -10.3120    2.8060    1.5680 ca        1 MOL     -0.367004
    132 C46       -11.0360    1.3360   -0.2540 ca        1 MOL     -0.367004
    133 C47       -11.2530    1.9350    1.0270 ca        1 MOL      0.445863
    134 O20       -12.3910    1.7370    1.7460 oh        1 MOL     -0.535987
    135 H56        -5.1150    3.0110   -1.6320 hn        1 MOL      0.254597
    136 H57        -6.4170    2.2760    0.6190 h1        1 MOL     -0.002858
    137 H58        -7.5270    2.0360   -2.0790 hc        1 MOL      0.067077
    138 H59        -7.3170    3.6420   -1.2070 hc        1 MOL      0.067077
    139 H60        -8.3940    3.6480    1.3170 ha        1 MOL      0.128760
    140 H61        -9.7480    1.0920   -1.9400 ha        1 MOL      0.128760
    141 H62       -10.4580    3.3070    2.5120 ha        1 MOL      0.165508
    142 H63       -11.7730    0.6810   -0.6910 ha        1 MOL      0.165508
    143 H64       -13.0080    1.1240    1.3500 ho        1 MOL      0.372028
    144 N13        -6.0450   -0.3870   -1.2340 n         1 MOL     -0.331230
    145 C48        -6.1850   -1.8250   -1.2900 c3        1 MOL     -0.044604
    146 C49        -5.3370   -2.5870   -0.2110 c         1 MOL      0.332007
    147 O21        -5.4530   -3.7950    0.0300 o         1 MOL     -0.489125
    148 C50        -5.9460   -2.4350   -2.6680 c3        1 MOL      0.106017
    149 C51        -7.2290   -2.4040   -3.4910 c3        1 MOL     -0.163676
    150 C52        -7.1270   -2.9370   -4.8920 c         1 MOL      0.723430
    151 O22        -6.8860   -4.1310   -5.1200 o         1 MOL     -0.753766
    152 O23        -7.3330   -2.1320   -5.8450 o         1 MOL     -0.753766
    153 H65        -5.4770    0.0320   -1.9440 hn        1 MOL      0.196622
    154 H66        -7.2310   -1.9930   -1.0400 h1        1 MOL      0.087808
    155 H67        -5.5780   -3.4390   -2.4960 hc        1 MOL      0.014717
    156 H68        -5.2240   -1.8600   -3.2510 hc        1 MOL      0.014717
    157 H69        -7.4980   -1.3460   -3.5240 hc        1 MOL     -0.018801
    158 H70        -8.0260   -2.8990   -2.9470 hc        1 MOL     -0.018801
    159 N14        -4.3900   -1.8330    0.4370 n         1 MOL     -0.154564
    160 C53        -3.6080   -2.2690    1.5590 c3        1 MOL      0.050575
    161 C54        -4.2130   -1.7590    2.8560 c         1 MOL      0.462938
    162 O24        -4.2670   -2.4730    3.8550 o         1 MOL     -0.561915
    163 C55        -2.1660   -1.7970    1.4130 c3        1 MOL      0.008435
    164 C56        -1.4060   -2.0010    0.0590 c3        1 MOL     -0.022559
    165 C57        -0.0720   -1.3120   -0.0020 c         1 MOL      0.851932
    166 O25         1.0390   -1.8670    0.0860 o         1 MOL     -0.805114
    167 O26        -0.1090   -0.0970   -0.1110 o         1 MOL     -0.805114
    168 H71        -4.1310   -0.9680   -0.0130 hn        1 MOL      0.121984
    169 H72        -3.5130   -3.3420    1.7400 h1        1 MOL      0.046805
    170 H73        -1.6080   -2.2640    2.2260 hc        1 MOL      0.003062
    171 H74        -2.1120   -0.7170    1.4860 hc        1 MOL      0.003062
    172 H75        -1.9420   -1.6980   -0.8380 hc        1 MOL     -0.013657
    173 H76        -1.2300   -3.0730   -0.0850 hc        1 MOL     -0.013657
    174 N15        -4.7680   -0.5530    2.8030 n         1 MOL     -0.061408
    175 C58        -5.5080    0.0520    3.8940 c3        1 MOL     -0.293598
    176 H77        -6.4420   -0.4910    4.0430 h1        1 MOL      0.102253
    177 H78        -4.9120    0.0070    4.8060 h1        1 MOL      0.102253
    178 H79        -5.7270    1.0920    3.6530 h1        1 MOL      0.102253
    179 H80        -4.6350   -0.0620    1.9320 hn        1 MOL     -0.046856
    180 Ca1         2.3760    0.1400   -1.1860 Ca        1 MOL      1.772358
    181 O27         1.4460    2.4390   -2.4370 oh        1 MOL     -0.942253
    182 H81         0.9850    2.6950   -3.2390 ho        1 MOL      0.429054
    183 H82         2.3290    2.7870   -2.5510 ho        1 MOL      0.429054
    184 O28         0.5710   -0.3660   -3.0410 oh        1 MOL     -0.942253
    185 H83        -0.1310   -0.0660   -3.6260 ho        1 MOL      0.429054
    186 H84         0.6880   -1.2930   -3.2480 ho        1 MOL      0.429054
@<TRIPOS>BOND
     1    1    2 1   
     2    1    4 1   
     3    1    5 1   
     4    1    6 1   
     5    2    3 2   
     6    2    7 1   
     7    7    8 1   
     8    7   15 1   
     9    8    9 1   
    10    8   11 1   
    11    8   16 1   
    12    9   10 2   
    13    9   19 1   
    14   11   12 1   
    15   11   17 1   
    16   11   18 1   
    17   12   13 1   
    18   12   14 1   
    19   19   20 1   
    20   19   27 1   
    21   20   21 1   
    22   20   23 1   
    23   20   28 1   
    24   21   22 2   
    25   21   38 1   
    26   23   24 1   
    27   23   25 1   
    28   23   29 1   
    29   24   26 1   
    30   24   30 1   
    31   24   31 1   
    32   25   32 1   
    33   25   33 1   
    34   25   34 1   
    35   26   35 1   
    36   26   36 1   
    37   26   37 1   
    38   38   39 1   
    39   38   46 1   
    40   39   40 1   
    41   39   42 1   
    42   39   47 1   
    43   40   41 2   
    44   40   50 1   
    45   42   43 1   
    46   42   48 1   
    47   42   49 1   
    48   43   44 1   
    49   43   45 1   
    50   50   51 1   
    51   50   54 1   
    52   51   52 1   
    53   51   55 1   
    54   51   56 1   
    55   52   53 2   
    56   52   57 1   
    57   57   58 1   
    58   57   65 1   
    59   58   59 1   
    60   58   61 1   
    61   58   66 1   
    62   59   60 2   
    63   59   69 1   
    64   61   62 1   
    65   61   67 1   
    66   61   68 1   
    67   62   63 1   
    68   62   64 1   
    69   69   70 1   
    70   69   73 1   
    71   70   71 1   
    72   70   74 1   
    73   70   75 1   
    74   71   72 2   
    75   71   76 1   
    76   76   77 1   
    77   76   85 1   
    78   77   78 1   
    79   77   80 1   
    80   77   86 1   
    81   78   79 2   
    82   78   93 1   
    83   80   81 1   
    84   80   87 1   
    85   80   88 1   
    86   81   82 1   
    87   81   89 1   
    88   81   90 1   
    89   82   83 1   
    90   82   84 2   
    91   83   91 1   
    92   83   92 1   
    93   93   94 1   
    94   93  100 1   
    95   94   95 1   
    96   94   97 1   
    97   94  101 1   
    98   95   96 2   
    99   95  109 1   
   100   97   98 1   
   101   97   99 1   
   102   97  102 1   
   103   98  103 1   
   104   98  104 1   
   105   98  105 1   
   106   99  106 1   
   107   99  107 1   
   108   99  108 1   
   109  109  110 1   
   110  109  117 1   
   111  110  111 1   
   112  110  113 1   
   113  110  118 1   
   114  111  112 2   
   115  111  123 1   
   116  113  114 1   
   117  113  119 1   
   118  113  120 1   
   119  114  115 1   
   120  114  116 2   
   121  115  121 1   
   122  115  122 1   
   123  123  124 1   
   124  123  135 1   
   125  124  125 1   
   126  124  127 1   
   127  124  136 1   
   128  125  126 2   
   129  125  144 1   
   130  127  128 1   
   131  127  137 1   
   132  127  138 1   
   133  128  129 ar  
   134  128  130 ar  
   135  129  131 ar  
   136  129  139 1   
   137  130  132 ar  
   138  130  140 1   
   139  131  133 ar  
   140  131  141 1   
   141  132  133 ar  
   142  132  142 1   
   143  133  134 1   
   144  134  143 1   
   145  144  145 1   
   146  144  153 1   
   147  145  146 1   
   148  145  148 1   
   149  145  154 1   
   150  146  147 2   
   151  146  159 1   
   152  148  149 1   
   153  148  155 1   
   154  148  156 1   
   155  149  150 1   
   156  149  157 1   
   157  149  158 1   
   158  150  151 1   
   159  150  152 1   
   160  159  160 1   
   161  159  168 1   
   162  160  161 1   
   163  160  163 1   
   164  160  169 1   
   165  161  162 2   
   166  161  174 1   
   167  163  164 1   
   168  163  170 1   
   169  163  171 1   
   170  164  165 1   
   171  164  172 1   
   172  164  173 1   
   173  165  166 1   
   174  165  167 1   
   175  174  175 1   
   176  174  179 1   
   177  175  176 1   
   178  175  177 1   
   179  175  178 1   
   180  181  182 1   
   181  181  183 1   
   182  184  185 1   
   183  184  186 1   
@<TRIPOS>SUBSTRUCTURE
     1 MOL         1 TEMP              0 ****  ****    0 ROOT
