@<TRIPOS>MOLECULE
MOL
  176   174     1     0     0
SMALL
resp


@<TRIPOS>ATOM
      1 C1          0.1160    4.3770    5.3190 c3        1 MOL     -0.445587
      2 C2         -0.4750    3.8790    3.9580 c         1 MOL      0.667526
      3 O1         -0.0000    4.2300    2.9180 o         1 MOL     -0.573121
      4 H1         -0.4140    3.8970    6.1410 hc        1 MOL      0.118878
      5 H2          1.1740    4.1220    5.3700 hc        1 MOL      0.118878
      6 H3         -0.0020    5.4580    5.3930 hc        1 MOL      0.118878
      7 N1         -1.5130    3.0170    3.9430 n         1 MOL     -0.488246
      8 C3         -2.1330    2.4580    2.6790 c3        1 MOL      0.017040
      9 C4         -3.2440    3.3990    2.0490 c         1 MOL      0.458436
     10 O2         -4.4670    3.2320    2.1400 o         1 MOL     -0.494356
     11 C5         -2.7530    1.0490    2.8940 c3        1 MOL     -0.133108
     12 C6         -3.2700    0.4170    1.6120 c         1 MOL      0.740163
     13 O3         -3.0500    0.9510    0.5560 o         1 MOL     -0.773726
     14 O4         -3.7930   -0.7260    1.6730 o         1 MOL     -0.773726
     15 H4         -1.8420    2.6600    4.8290 hn        1 MOL      0.285155
     16 H5         -1.3650    2.3690    1.9170 h1        1 MOL      0.123702
     17 H6         -3.5540    1.0070    3.6450 hc        1 MOL      0.058553
     18 H7         -1.9320    0.4880    3.3530 hc        1 MOL      0.058553
     19 N2         -2.7720    4.3630    1.2290 n         1 MOL     -0.399561
     20 C7         -3.5900    5.4460    0.6580 c3        1 MOL     -0.047628
     21 C8         -4.4730    5.1580   -0.6360 c         1 MOL      0.390133
     22 O5         -5.6120    5.5330   -0.6500 o         1 MOL     -0.482862
     23 C9         -2.5480    6.6180    0.4360 c3        1 MOL     -0.020063
     24 C10        -3.2330    7.8670   -0.0560 c3        1 MOL     -0.100557
     25 C11        -2.3380    9.1030   -0.1440 c3        1 MOL     -0.002747
     26 C12        -1.0590    8.8410   -1.0780 c3        1 MOL      0.091506
     27 N3         -0.0170    9.9190   -0.8960 n4        1 MOL     -0.396636
     28 H8         -1.7920    4.3200    1.0090 hn        1 MOL      0.293220
     29 H9         -4.2490    5.7300    1.4780 h1        1 MOL      0.143367
     30 H10        -1.8200    6.1650   -0.2440 hc        1 MOL      0.031910
     31 H11        -2.0010    6.7760    1.3670 hc        1 MOL      0.031910
     32 H12        -4.0250    8.1130    0.6600 hc        1 MOL      0.071608
     33 H13        -3.6940    7.6830   -1.0350 hc        1 MOL      0.071608
     34 H14        -1.9530    9.4070    0.8290 hc        1 MOL      0.023423
     35 H15        -2.8210    9.9840   -0.5660 hc        1 MOL      0.023423
     36 H16        -1.3650    8.7490   -2.1260 hx        1 MOL      0.072432
     37 H17        -0.6180    7.9000   -0.7660 hx        1 MOL      0.072432
     38 H18        -0.2440   10.8340   -1.2480 hn        1 MOL      0.332347
     39 H19         0.2410    9.9550    0.0870 hn        1 MOL      0.332347
     40 H20         0.8500    9.8220   -1.4000 hn        1 MOL      0.332347
     41 N4         -3.9500    4.2670   -1.5300 n         1 MOL     -0.371001
     42 C13        -4.7920    3.6000   -2.4740 c3        1 MOL      0.128708
     43 C14        -5.7710    2.5940   -1.8520 c         1 MOL      0.399033
     44 O6         -6.8200    2.3200   -2.4650 o         1 MOL     -0.543889
     45 C15        -3.8560    2.8370   -3.4420 c3        1 MOL     -0.343468
     46 C16        -2.9370    1.7690   -2.9120 c         1 MOL      0.857102
     47 O7         -3.2590    0.5550   -2.8360 o         1 MOL     -0.763743
     48 O8         -1.8660    2.1930   -2.4100 o         1 MOL     -0.763743
     49 H21        -2.9800    3.9860   -1.5100 hn        1 MOL      0.258331
     50 H22        -5.4380    4.2570   -3.0640 h1        1 MOL      0.075703
     51 H23        -3.1670    3.5160   -3.9420 hc        1 MOL      0.072076
     52 H24        -4.4730    2.4010   -4.2350 hc        1 MOL      0.072076
     53 N5         -5.4600    2.0890   -0.6290 n         1 MOL      0.086658
     54 C17        -6.3860    1.3150    0.2290 c3        1 MOL     -0.337374
     55 C18        -6.4910   -0.1650   -0.1540 c         1 MOL      0.518133
     56 O9         -7.5340   -0.7910    0.0990 o         1 MOL     -0.587066
     57 H25        -4.5880    2.2710   -0.1580 hn        1 MOL      0.074840
     58 H26        -7.3550    1.8010    0.1410 h1        1 MOL      0.155486
     59 H27        -6.0500    1.3040    1.2610 h1        1 MOL      0.155486
     60 N6         -5.5900   -0.7860   -0.8910 n         1 MOL     -0.131746
     61 C19        -5.8160   -2.1680   -1.5440 c3        1 MOL     -0.103788
     62 C20        -5.6680   -3.2410   -0.5160 c         1 MOL      0.357398
     63 O10        -6.0660   -4.3810   -0.7370 o         1 MOL     -0.504033
     64 C21        -4.9160   -2.3160   -2.8340 c3        1 MOL     -0.113829
     65 C22        -3.4320   -2.5790   -2.5350 c         1 MOL      0.535691
     66 N7         -2.7880   -3.4010   -3.3120 n         1 MOL     -0.618601
     67 O11        -2.7950   -2.0890   -1.5850 o         1 MOL     -0.681005
     68 H28        -4.8170   -0.3020   -1.3240 hn        1 MOL      0.123328
     69 H29        -6.8570   -2.1430   -1.8600 h1        1 MOL      0.135059
     70 H30        -5.0750   -1.3910   -3.3860 hc        1 MOL      0.083033
     71 H31        -5.3850   -3.1260   -3.4100 hc        1 MOL      0.083033
     72 H32        -3.3160   -3.7570   -4.0990 hn        1 MOL      0.323234
     73 H33        -1.7840   -3.4150   -3.2210 hn        1 MOL      0.323234
     74 N8         -5.1860   -2.9750    0.7030 n         1 MOL     -0.031026
     75 C23        -4.9360   -3.8480    1.7470 c3        1 MOL     -0.422551
     76 C24        -3.4930   -4.3080    1.9620 c         1 MOL      0.799522
     77 O12        -3.2550   -5.1980    2.8140 o         1 MOL     -0.619943
     78 H34        -4.7460   -2.0720    0.8660 hn        1 MOL      0.261854
     79 H35        -5.6190   -4.6900    1.6630 h1        1 MOL      0.137305
     80 H36        -5.2210   -3.2440    2.6050 h1        1 MOL      0.137305
     81 N9         -2.5900   -3.7010    1.2520 n         1 MOL     -0.718066
     82 C25        -1.1990   -4.1490    1.1580 c3        1 MOL      0.343173
     83 C26        -0.2280   -2.9190    1.0150 c         1 MOL      0.449120
     84 O13        -0.6150   -1.9240    0.4160 o         1 MOL     -0.566818
     85 C27        -1.0460   -5.0450   -0.0620 c3        1 MOL      0.059831
     86 C28        -1.8010   -6.3460   -0.1150 ca        1 MOL      0.031571
     87 C29        -3.0190   -6.4260   -0.8310 ca        1 MOL     -0.221835
     88 C30        -1.3210   -7.4830    0.5890 ca        1 MOL     -0.221835
     89 C31        -3.6990   -7.6310   -0.9260 ca        1 MOL     -0.193503
     90 C32        -2.0870   -8.6690    0.5790 ca        1 MOL     -0.193503
     91 C33        -3.2300   -8.7400   -0.2440 ca        1 MOL      0.279877
     92 O14        -3.9710   -9.8380   -0.3820 oh        1 MOL     -0.428657
     93 H37        -2.9420   -3.0780    0.5430 hn        1 MOL      0.491498
     94 H38        -0.8740   -4.7390    2.0050 h1        1 MOL     -0.000840
     95 H39        -0.0180   -5.3730   -0.2060 hc        1 MOL     -0.020264
     96 H40        -1.2560   -4.4510   -0.9510 hc        1 MOL     -0.020264
     97 H41        -3.3950   -5.5780   -1.3830 ha        1 MOL      0.140776
     98 H42        -0.4410   -7.3880    1.2100 ha        1 MOL      0.140776
     99 H43        -4.5870   -7.6140   -1.5260 ha        1 MOL      0.139114
    100 H44        -1.8260   -9.5320    1.1730 ha        1 MOL      0.139114
    101 H45        -3.4690  -10.4820    0.1160 ho        1 MOL      0.321798
    102 N10         1.0480   -3.0810    1.5120 n         1 MOL     -0.612542
    103 C34         2.1470   -2.0960    1.4480 c3        1 MOL      0.078806
    104 C35         3.5110   -2.7550    1.1330 c         1 MOL      0.612314
    105 O15         3.9480   -3.5690    1.9590 o         1 MOL     -0.557518
    106 C36         2.2180   -1.4280    2.8380 c3        1 MOL     -0.041836
    107 C37         0.9060   -0.7820    3.2540 c3        1 MOL      0.406925
    108 C38         3.3490   -0.3640    2.9990 c3        1 MOL     -0.214099
    109 C39         0.7790   -0.2580    4.6900 c3        1 MOL     -0.449236
    110 H46         1.1720   -3.8260    2.1690 hn        1 MOL      0.323898
    111 H47         1.9540   -1.3070    0.7130 h1        1 MOL      0.091917
    112 H48         2.4320   -2.2520    3.5310 hc        1 MOL      0.028801
    113 H49         0.0930   -1.5070    3.2250 hc        1 MOL     -0.054124
    114 H50         0.5550   -0.1270    2.4560 hc        1 MOL     -0.054124
    115 H51         4.2530   -0.7870    2.5540 hc        1 MOL      0.057184
    116 H52         3.0220    0.5370    2.4780 hc        1 MOL      0.057184
    117 H53         3.4450   -0.1580    4.0590 hc        1 MOL      0.057184
    118 H54         1.1110   -1.0550    5.3530 hc        1 MOL      0.095778
    119 H55         1.3580    0.6630    4.7410 hc        1 MOL      0.095778
    120 H56        -0.2740   -0.1420    4.9360 hc        1 MOL      0.095778
    121 N11         4.1670   -2.3350    0.0930 n         1 MOL     -0.449560
    122 C40         5.5080   -2.7910   -0.3090 c3        1 MOL      0.161652
    123 C41         6.7170   -1.9540    0.2270 c         1 MOL      0.246966
    124 O16         6.5280   -0.9160    0.9000 o         1 MOL     -0.283051
    125 C42         5.5030   -2.8060   -1.8040 c3        1 MOL     -0.043028
    126 O17         5.4470   -1.4590   -2.2380 oh        1 MOL     -0.434118
    127 H57         3.8830   -1.4540   -0.2980 hn        1 MOL      0.221363
    128 H58         5.5210   -3.8560   -0.0940 h1        1 MOL      0.073023
    129 H59         4.6830   -3.3420   -2.2880 h1        1 MOL      0.056622
    130 H60         6.4360   -3.3130   -2.0600 h1        1 MOL      0.056622
    131 H61         5.3390   -1.4440   -3.1930 ho        1 MOL      0.385641
    132 N12         7.9110   -2.5280    0.0400 n         1 MOL     -0.351928
    133 C43         9.1080   -1.8730    0.4500 c3        1 MOL      0.280556
    134 C44         9.3690   -0.5140   -0.3630 c         1 MOL      0.293925
    135 O18         9.9040    0.4140    0.1990 o         1 MOL     -0.465192
    136 C45        10.3210   -2.7490    0.2580 c3        1 MOL     -0.490689
    137 H62         7.8960   -3.4740   -0.3190 hn        1 MOL      0.274442
    138 H63         8.9960   -1.6550    1.5080 h1        1 MOL      0.067483
    139 H64        10.4230   -3.3730    1.1460 hc        1 MOL      0.138487
    140 H65        10.1760   -3.2170   -0.7120 hc        1 MOL      0.138487
    141 H66        11.2410   -2.1700    0.1310 hc        1 MOL      0.138487
    142 N13         8.8560   -0.3810   -1.6200 n         1 MOL     -0.299115
    143 C46         8.8100    0.8730   -2.4070 c3        1 MOL      0.264179
    144 C47         7.6240    1.8730   -2.0730 c         1 MOL      0.285056
    145 O19         7.8410    3.0730   -1.8780 o         1 MOL     -0.472446
    146 C48         8.8240    0.5690   -3.8730 c3        1 MOL     -0.233103
    147 H67         8.4820   -1.2090   -2.0520 hn        1 MOL      0.224586
    148 H68         9.6670    1.5050   -2.1900 h1        1 MOL      0.061855
    149 H69         7.9310   -0.0440   -4.0060 hc        1 MOL      0.050357
    150 H70         8.7770    1.5390   -4.3610 hc        1 MOL      0.050357
    151 H71         9.7270   -0.0040   -4.0820 hc        1 MOL      0.050357
    152 N14         6.4270    1.3310   -1.6790 n         1 MOL     -0.088881
    153 C49         5.2540    2.0880   -1.1390 c3        1 MOL     -0.193816
    154 C50         5.6890    2.6020    0.2690 c         1 MOL      0.483296
    155 O20         5.5300    3.7640    0.5450 o         1 MOL     -0.562291
    156 C51         3.9960    1.1560   -0.9590 c3        1 MOL      0.103760
    157 C52         2.7740    1.9480   -0.5930 c3        1 MOL     -0.183689
    158 C53         1.4840    1.2810   -0.8200 c         1 MOL      0.901072
    159 O21         1.2240    0.4940   -1.7790 o         1 MOL     -0.856514
    160 O22         0.5740    1.4390    0.0170 o         1 MOL     -0.856514
    161 H72         6.2820    0.3510   -1.8700 hn        1 MOL      0.037190
    162 H73         5.0020    2.9480   -1.7630 h1        1 MOL      0.128119
    163 H74         4.1240    0.3240   -0.2660 hc        1 MOL     -0.000143
    164 H75         3.7850    0.7480   -1.9450 hc        1 MOL     -0.000143
    165 H76         2.7230    2.8830   -1.1420 hc        1 MOL      0.052056
    166 H77         2.8550    2.1440    0.4700 hc        1 MOL      0.052056
    167 N15         6.2190    1.7710    1.1390 n         1 MOL     -0.036413
    168 C54         6.4390    2.2150    2.5230 c3        1 MOL     -0.147980
    169 H78         5.7830    1.6580    3.1910 h1        1 MOL      0.069251
    170 H79         7.4780    2.0370    2.8010 h1        1 MOL      0.069251
    171 H80         6.2190    3.2800    2.6030 h1        1 MOL      0.069251
    172 H81         6.2890    0.7820    0.9910 hn        1 MOL      0.022312
    173 Ca1        -1.2900    0.0250   -1.1260 Ca        1 MOL      1.768961
    174 O23        -0.4090   -0.9200   -3.4370 oh        1 MOL     -0.720361
    175 H82         0.0320   -1.7590   -3.4440 ho        1 MOL      0.379046
    176 H83        -0.4330   -0.6520   -4.3560 ho        1 MOL      0.379046
@<TRIPOS>BOND
     1    1    2 1   
     2    1    4 1   
     3    1    5 1   
     4    1    6 1   
     5    2    3 2   
     6    2    7 1   
     7    7    8 1   
     8    7   15 1   
     9    8    9 1   
    10    8   11 1   
    11    8   16 1   
    12    9   10 2   
    13    9   19 1   
    14   11   12 1   
    15   11   17 1   
    16   11   18 1   
    17   12   13 1   
    18   12   14 1   
    19   19   20 1   
    20   19   28 1   
    21   20   21 1   
    22   20   23 1   
    23   20   29 1   
    24   21   22 2   
    25   21   41 1   
    26   23   24 1   
    27   23   30 1   
    28   23   31 1   
    29   24   25 1   
    30   24   32 1   
    31   24   33 1   
    32   25   26 1   
    33   25   34 1   
    34   25   35 1   
    35   26   27 1   
    36   26   36 1   
    37   26   37 1   
    38   27   38 1   
    39   27   39 1   
    40   27   40 1   
    41   41   42 1   
    42   41   49 1   
    43   42   43 1   
    44   42   45 1   
    45   42   50 1   
    46   43   44 2   
    47   43   53 1   
    48   45   46 1   
    49   45   51 1   
    50   45   52 1   
    51   46   47 1   
    52   46   48 1   
    53   53   54 1   
    54   53   57 1   
    55   54   55 1   
    56   54   58 1   
    57   54   59 1   
    58   55   56 2   
    59   55   60 1   
    60   60   61 1   
    61   60   68 1   
    62   61   62 1   
    63   61   64 1   
    64   61   69 1   
    65   62   63 2   
    66   62   74 1   
    67   64   65 1   
    68   64   70 1   
    69   64   71 1   
    70   65   66 1   
    71   65   67 2   
    72   66   72 1   
    73   66   73 1   
    74   74   75 1   
    75   74   78 1   
    76   75   76 1   
    77   75   79 1   
    78   75   80 1   
    79   76   77 2   
    80   76   81 1   
    81   81   82 1   
    82   81   93 1   
    83   82   83 1   
    84   82   85 1   
    85   82   94 1   
    86   83   84 2   
    87   83  102 1   
    88   85   86 1   
    89   85   95 1   
    90   85   96 1   
    91   86   87 ar  
    92   86   88 ar  
    93   87   89 ar  
    94   87   97 1   
    95   88   90 ar  
    96   88   98 1   
    97   89   91 ar  
    98   89   99 1   
    99   90   91 ar  
   100   90  100 1   
   101   91   92 1   
   102   92  101 1   
   103  102  103 1   
   104  102  110 1   
   105  103  104 1   
   106  103  106 1   
   107  103  111 1   
   108  104  105 2   
   109  104  121 1   
   110  106  107 1   
   111  106  108 1   
   112  106  112 1   
   113  107  109 1   
   114  107  113 1   
   115  107  114 1   
   116  108  115 1   
   117  108  116 1   
   118  108  117 1   
   119  109  118 1   
   120  109  119 1   
   121  109  120 1   
   122  121  122 1   
   123  121  127 1   
   124  122  123 1   
   125  122  125 1   
   126  122  128 1   
   127  123  124 2   
   128  123  132 1   
   129  125  126 1   
   130  125  129 1   
   131  125  130 1   
   132  126  131 1   
   133  132  133 1   
   134  132  137 1   
   135  133  134 1   
   136  133  136 1   
   137  133  138 1   
   138  134  135 2   
   139  134  142 1   
   140  136  139 1   
   141  136  140 1   
   142  136  141 1   
   143  142  143 1   
   144  142  147 1   
   145  143  144 1   
   146  143  146 1   
   147  143  148 1   
   148  144  145 2   
   149  144  152 1   
   150  146  149 1   
   151  146  150 1   
   152  146  151 1   
   153  152  153 1   
   154  152  161 1   
   155  153  154 1   
   156  153  156 1   
   157  153  162 1   
   158  154  155 2   
   159  154  167 1   
   160  156  157 1   
   161  156  163 1   
   162  156  164 1   
   163  157  158 1   
   164  157  165 1   
   165  157  166 1   
   166  158  159 1   
   167  158  160 1   
   168  167  168 1   
   169  167  172 1   
   170  168  169 1   
   171  168  170 1   
   172  168  171 1   
   173  174  175 1   
   174  174  176 1   
@<TRIPOS>SUBSTRUCTURE
     1 MOL         1 TEMP              0 ****  ****    0 ROOT
