@<TRIPOS>MOLECULE
MOL
  189   185     1     0     0
SMALL
resp


@<TRIPOS>ATOM
      1 C1          0.5180    3.3840    6.0840 c3        1 MOL     -0.385242
      2 C2         -0.5190    3.0310    4.9420 c         1 MOL      0.650832
      3 O1         -0.9670    1.8600    4.8300 o         1 MOL     -0.600933
      4 H1          0.1240    4.1980    6.6930 hc        1 MOL      0.104708
      5 H2          0.6800    2.5070    6.7120 hc        1 MOL      0.104708
      6 H3          1.4630    3.6900    5.6360 hc        1 MOL      0.104708
      7 N1         -0.7610    3.9550    4.0010 n         1 MOL     -0.549411
      8 C3         -1.5050    3.7360    2.7070 c3        1 MOL      0.277332
      9 C4         -1.1570    4.8430    1.6360 c         1 MOL      0.480871
     10 O2         -1.1040    6.0170    2.0720 o         1 MOL     -0.604331
     11 C5         -2.9830    3.8950    2.9360 c3        1 MOL     -0.358579
     12 C6         -3.7870    3.2630    1.7390 c         1 MOL      0.784878
     13 O3         -5.0270    3.3790    1.7500 o         1 MOL     -0.680737
     14 O4         -3.2570    2.7150    0.7060 o         1 MOL     -0.680737
     15 H4         -0.2870    4.8490    4.0550 hn        1 MOL      0.288253
     16 H5         -1.3140    2.7180    2.3550 h1        1 MOL      0.013284
     17 H6         -3.1980    4.9580    3.0450 hc        1 MOL      0.096297
     18 H7         -3.2760    3.4920    3.9000 hc        1 MOL      0.096297
     19 N2         -1.0660    4.5020    0.3950 n         1 MOL     -0.109222
     20 C7         -0.9010    5.4160   -0.7630 c3        1 MOL     -0.094215
     21 C8         -2.0790    5.2670   -1.7060 c         1 MOL      0.597994
     22 O5         -2.4360    6.2410   -2.3780 o         1 MOL     -0.592226
     23 C9          0.5830    5.3360   -1.4220 c3        1 MOL      0.272701
     24 C10         1.7380    5.4920   -0.4170 c3        1 MOL     -0.196515
     25 C11         0.7370    6.1200   -2.7640 c3        1 MOL     -0.281449
     26 C12         3.0350    4.7210   -0.7370 c3        1 MOL     -0.180378
     27 H8         -1.2820    3.5290    0.2200 hn        1 MOL     -0.037742
     28 H9         -0.9060    6.3720   -0.2280 h1        1 MOL      0.058518
     29 H10         0.6510    4.3070   -1.7720 hc        1 MOL      0.003707
     30 H11         1.3740    5.1360    0.5440 hc        1 MOL      0.042551
     31 H12         1.9380    6.5490   -0.2470 hc        1 MOL      0.042551
     32 H13         0.8050    7.1790   -2.5040 hc        1 MOL      0.061122
     33 H14         1.6170    5.8140   -3.3420 hc        1 MOL      0.061122
     34 H15        -0.0840    6.0380   -3.4800 hc        1 MOL      0.061122
     35 H16         3.7450    4.7850    0.0860 hc        1 MOL      0.082119
     36 H17         2.8860    3.6610   -0.9550 hc        1 MOL      0.082119
     37 H18         3.4730    5.0860   -1.6640 hc        1 MOL      0.082119
     38 N3         -2.6950    4.0610   -1.8830 n         1 MOL     -0.530933
     39 C13        -3.5360    3.6600   -3.0170 c3        1 MOL      0.182554
     40 C14        -4.8770    3.0910   -2.6870 c         1 MOL      0.249828
     41 O6         -5.7370    2.9120   -3.5790 o         1 MOL     -0.536533
     42 C15        -2.7750    2.6340   -3.8420 c3        1 MOL     -0.333438
     43 C16        -2.3700    1.4320   -3.0180 c         1 MOL      0.793549
     44 O7         -3.0010    1.1610   -1.9980 o         1 MOL     -0.709457
     45 O8         -1.3560    0.8460   -3.4070 o         1 MOL     -0.709457
     46 H19        -2.4900    3.3040   -1.2410 hn        1 MOL      0.414445
     47 H20        -3.7430    4.4730   -3.7040 h1        1 MOL      0.088369
     48 H21        -1.8440    3.1370   -4.1290 hc        1 MOL      0.081821
     49 H22        -3.3930    2.4130   -4.7070 hc        1 MOL      0.081821
     50 N4         -5.2580    2.8980   -1.4290 n         1 MOL      0.042101
     51 C17        -6.6660    2.6160   -1.1060 c3        1 MOL     -0.470824
     52 C18        -7.2870    1.3270   -1.7580 c         1 MOL      0.572252
     53 O9         -8.4970    1.1540   -1.9790 o         1 MOL     -0.593029
     54 H23        -4.5750    2.9700   -0.6910 hn        1 MOL      0.070352
     55 H24        -7.1470    3.4470   -1.6300 h1        1 MOL      0.167455
     56 H25        -6.7360    2.5890   -0.0180 h1        1 MOL      0.167455
     57 N5         -6.3770    0.3600   -1.9070 n         1 MOL     -0.310096
     58 C19        -6.6070   -1.0310   -2.3840 c3        1 MOL      0.004800
     59 C20        -7.0970   -1.9650   -1.1880 c         1 MOL      0.421761
     60 O10        -7.5560   -3.0790   -1.4630 o         1 MOL     -0.544571
     61 C21        -5.3730   -1.6060   -3.1150 c3        1 MOL     -0.176907
     62 C22        -4.1720   -1.9080   -2.1940 c         1 MOL      0.735252
     63 O11        -4.1650   -1.4240   -1.0200 o         1 MOL     -0.688033
     64 O12        -3.1540   -2.5550   -2.5930 o         1 MOL     -0.688033
     65 H26        -5.4020    0.6280   -1.9170 hn        1 MOL      0.316570
     66 H27        -7.4330   -0.9460   -3.0870 h1        1 MOL      0.091508
     67 H28        -5.0580   -0.9170   -3.9050 hc        1 MOL      0.053784
     68 H29        -5.7560   -2.5170   -3.5660 hc        1 MOL      0.053784
     69 N6         -6.9270   -1.5370    0.0620 n         1 MOL     -0.187410
     70 C23        -7.1290   -2.2760    1.2860 c3        1 MOL     -0.245082
     71 C24        -5.9990   -3.3120    1.7260 c         1 MOL      0.557379
     72 O13        -6.2590   -4.1010    2.6060 o         1 MOL     -0.592927
     73 H30        -6.5120   -0.6270    0.1880 hn        1 MOL      0.205936
     74 H31        -8.0500   -2.7660    0.9720 h1        1 MOL      0.102409
     75 H32        -7.3220   -1.5810    2.0920 h1        1 MOL      0.102409
     76 N7         -4.8450   -3.3080    1.0750 n         1 MOL     -0.291166
     77 C25        -3.7110   -4.1850    1.3890 c3        1 MOL      0.063926
     78 C26        -2.6230   -3.2600    1.9340 c         1 MOL      0.526270
     79 O14        -2.6170   -2.1120    1.5680 o         1 MOL     -0.577003
     80 C27        -3.1900   -4.7530    0.0930 c3        1 MOL     -0.057559
     81 C28        -4.2560   -5.5480   -0.6500 c3        1 MOL     -0.240912
     82 C29        -3.6540   -6.1300   -1.9720 c         1 MOL      0.626029
     83 N8         -3.3970   -5.3730   -2.9600 n         1 MOL     -0.674727
     84 O15        -3.5100   -7.3180   -2.1220 o         1 MOL     -0.628109
     85 H33        -4.7060   -2.6280    0.3440 hn        1 MOL      0.235124
     86 H34        -4.0000   -4.9460    2.1160 h1        1 MOL      0.047053
     87 H35        -2.3210   -5.2740    0.4940 hc        1 MOL      0.077577
     88 H36        -2.7720   -4.0050   -0.5900 hc        1 MOL      0.077577
     89 H37        -5.1280   -4.9430   -0.9060 hc        1 MOL      0.077779
     90 H38        -4.5350   -6.4000   -0.0370 hc        1 MOL      0.077779
     91 H39        -3.3770   -4.3630   -2.9340 hn        1 MOL      0.316111
     92 H40        -3.2470   -5.8430   -3.8330 hn        1 MOL      0.316111
     93 N9         -1.6320   -3.8430    2.6800 n         1 MOL     -0.720471
     94 C30        -0.2910   -3.1730    2.7250 c3        1 MOL      0.603847
     95 C31         0.5760   -3.5410    1.5290 c         1 MOL      0.263199
     96 O16         0.3580   -4.6490    0.9150 o         1 MOL     -0.575629
     97 C32         0.4710   -3.3670    4.0840 c3        1 MOL     -0.076815
     98 C33         0.8830   -4.8630    4.4270 c3        1 MOL     -0.206332
     99 C34         1.6930   -2.4250    4.3010 c3        1 MOL     -0.206332
    100 H41        -1.6920   -4.8210    2.9370 hn        1 MOL      0.344097
    101 H42        -0.5390   -2.1090    2.6280 h1        1 MOL      0.028007
    102 H43        -0.3640   -3.0930    4.7300 hc        1 MOL      0.019460
    103 H44         1.6810   -5.3450    3.8650 hc        1 MOL      0.051261
    104 H45         1.4680   -4.8950    5.3510 hc        1 MOL      0.051261
    105 H46         0.0940   -5.6240    4.4110 hc        1 MOL      0.051261
    106 H47         1.5540   -1.3850    3.9860 hc        1 MOL      0.051261
    107 H48         2.1470   -2.4360    5.2890 hc        1 MOL      0.051261
    108 H49         2.4690   -2.8080    3.6410 hc        1 MOL      0.051261
    109 N10         1.3830   -2.5850    1.0290 n         1 MOL      0.159077
    110 C35         2.2570   -2.6760   -0.1140 c3        1 MOL      0.084188
    111 C36         3.6180   -2.7710    0.5140 c         1 MOL      0.157451
    112 O17         3.8310   -2.3540    1.6590 o         1 MOL     -0.358708
    113 C37         2.1470   -1.4470   -0.9880 c3        1 MOL     -0.337404
    114 C38         3.1170   -1.4710   -2.1610 c         1 MOL      0.688661
    115 N11         3.1380   -2.5190   -2.9480 n         1 MOL     -0.730061
    116 O18         4.0460   -0.6750   -2.3170 o         1 MOL     -0.571405
    117 H50         1.2630   -1.6800    1.4580 hn        1 MOL     -0.311680
    118 H51         2.1190   -3.5560   -0.7380 h1        1 MOL      0.041822
    119 H52         2.4020   -0.5790   -0.3650 hc        1 MOL      0.173247
    120 H53         1.1650   -1.3520   -1.4310 hc        1 MOL      0.173247
    121 H54         2.3940   -3.1940   -2.8550 hn        1 MOL      0.341297
    122 H55         3.7710   -2.5340   -3.7350 hn        1 MOL      0.341297
    123 N12         4.5730   -3.2470   -0.2180 n         1 MOL     -0.119546
    124 C39         5.9740   -3.1980    0.2190 c3        1 MOL      0.117152
    125 C40         6.4540   -1.7460    0.5680 c         1 MOL      0.306749
    126 O19         7.0800   -1.5850    1.6690 o         1 MOL     -0.542217
    127 C41         6.7880   -3.8150   -0.8760 c3        1 MOL     -0.195554
    128 C42         6.8040   -3.1540   -2.2880 ca        1 MOL     -0.038046
    129 C43         7.6170   -1.9640   -2.5270 ca        1 MOL     -0.093164
    130 C44         6.1310   -3.7360   -3.3560 ca        1 MOL     -0.093164
    131 C45         7.5400   -1.3940   -3.7900 ca        1 MOL     -0.379111
    132 C46         6.0960   -3.1880   -4.6520 ca        1 MOL     -0.379111
    133 C47         6.8580   -2.0480   -4.8410 ca        1 MOL      0.532981
    134 O20         7.0520   -1.5270   -6.0650 oh        1 MOL     -0.606079
    135 H56         4.3440   -3.6850   -1.0970 hn        1 MOL      0.175362
    136 H57         6.0810   -3.7820    1.1300 h1        1 MOL      0.060874
    137 H58         6.3500   -4.8100   -0.9590 hc        1 MOL      0.062231
    138 H59         7.8490   -3.9190   -0.6180 hc        1 MOL      0.062231
    139 H60         8.1240   -1.6160   -1.6440 ha        1 MOL      0.111995
    140 H61         5.5150   -4.6100   -3.1750 ha        1 MOL      0.111995
    141 H62         8.1720   -0.5260   -3.9380 ha        1 MOL      0.171419
    142 H63         5.5880   -3.7140   -5.4470 ha        1 MOL      0.171419
    143 H64         7.6310   -0.7630   -6.0950 ho        1 MOL      0.439447
    144 N13         6.2470   -0.6800   -0.2770 n         1 MOL      0.071543
    145 C48         6.6570    0.6860    0.1510 c3        1 MOL     -0.170980
    146 C49         5.8200    1.2660    1.3470 c         1 MOL      0.420642
    147 O21         6.2980    1.9790    2.2120 o         1 MOL     -0.496381
    148 C50         6.8350    1.5570   -1.1380 c3        1 MOL      0.063606
    149 C51         7.2850    2.9920   -0.8300 c3        1 MOL     -0.200832
    150 C52         7.7080    3.7800   -2.0620 c         1 MOL      0.652881
    151 O22         8.3050    3.1900   -3.0800 o         1 MOL     -0.725696
    152 O23         7.3770    5.0080   -2.0610 o         1 MOL     -0.725696
    153 H65         5.7260   -0.7690   -1.1380 hn        1 MOL      0.289958
    154 H66         7.6350    0.6370    0.6190 h1        1 MOL      0.090256
    155 H67         5.8550    1.4670   -1.6100 hc        1 MOL     -0.006765
    156 H68         7.5160    1.0480   -1.8190 hc        1 MOL     -0.006765
    157 H69         8.1500    2.7350   -0.2020 hc        1 MOL      0.037543
    158 H70         6.5790    3.5360   -0.2140 hc        1 MOL      0.037543
    159 N14         4.5630    0.7870    1.4200 n         1 MOL     -0.056556
    160 C53         3.7670    1.1390    2.5880 c3        1 MOL     -0.139841
    161 C54         4.2650    0.4500    3.8950 c         1 MOL      0.429893
    162 O24         4.2020    0.9840    4.9500 o         1 MOL     -0.566441
    163 C55         2.2860    0.6950    2.2830 c3        1 MOL      0.010132
    164 C56         1.5660    1.7060    1.2480 c3        1 MOL     -0.209351
    165 C57         0.1840    1.1580    0.9100 c         1 MOL      0.720511
    166 O25        -0.4950    1.7820    0.1220 o         1 MOL     -0.656669
    167 O26        -0.2440    0.0370    1.3920 o         1 MOL     -0.656669
    168 H71         4.3470   -0.0420    0.8790 hn        1 MOL     -0.160673
    169 H72         3.7600    2.2120    2.7370 h1        1 MOL      0.121018
    170 H73         1.7690    0.7990    3.2310 hc        1 MOL      0.101553
    171 H74         2.2260   -0.3420    1.9570 hc        1 MOL      0.101553
    172 H75         2.1780    1.6450    0.3480 hc        1 MOL      0.055177
    173 H76         1.4250    2.7210    1.6160 hc        1 MOL      0.055177
    174 N15         4.7060   -0.7860    3.7660 n         1 MOL      0.042796
    175 C58         5.2840   -1.5910    4.8850 c3        1 MOL     -0.201831
    176 H77         6.0310   -2.2800    4.4890 h1        1 MOL      0.070438
    177 H78         5.7540   -0.9240    5.6090 h1        1 MOL      0.070438
    178 H79         4.4920   -2.1570    5.3740 h1        1 MOL      0.070438
    179 H80         4.6850   -1.2620    2.8690 hn        1 MOL      0.106986
    180 Ca1        -2.6140    0.2430    0.3870 Ca        1 MOL      1.750536
    181 O27        -2.9390    0.7260    3.1140 oh        1 MOL     -0.934718
    182 H81        -3.5570    0.1780    3.6060 ho        1 MOL      0.432379
    183 H82        -2.2500    0.9310    3.7380 ho        1 MOL      0.432379
    184 O28        -1.3410   -1.0870   -1.5820 oh        1 MOL     -0.934718
    185 H83        -2.0490   -1.6510   -1.8930 ho        1 MOL      0.432379
    186 H84        -1.1180   -0.5400   -2.3360 ho        1 MOL      0.432379
    187 O29        -5.2130    0.7440    1.0060 oh        1 MOL     -0.934718
    188 H85        -5.6870    0.4360    1.7880 ho        1 MOL      0.432379
    189 H86        -5.0870    1.6820    1.1480 ho        1 MOL      0.432379
@<TRIPOS>BOND
     1    1    2 1   
     2    1    4 1   
     3    1    5 1   
     4    1    6 1   
     5    2    3 2   
     6    2    7 1   
     7    7    8 1   
     8    7   15 1   
     9    8    9 1   
    10    8   11 1   
    11    8   16 1   
    12    9   10 2   
    13    9   19 1   
    14   11   12 1   
    15   11   17 1   
    16   11   18 1   
    17   12   13 1   
    18   12   14 1   
    19   19   20 1   
    20   19   27 1   
    21   20   21 1   
    22   20   23 1   
    23   20   28 1   
    24   21   22 2   
    25   21   38 1   
    26   23   24 1   
    27   23   25 1   
    28   23   29 1   
    29   24   26 1   
    30   24   30 1   
    31   24   31 1   
    32   25   32 1   
    33   25   33 1   
    34   25   34 1   
    35   26   35 1   
    36   26   36 1   
    37   26   37 1   
    38   38   39 1   
    39   38   46 1   
    40   39   40 1   
    41   39   42 1   
    42   39   47 1   
    43   40   41 2   
    44   40   50 1   
    45   42   43 1   
    46   42   48 1   
    47   42   49 1   
    48   43   44 1   
    49   43   45 1   
    50   50   51 1   
    51   50   54 1   
    52   51   52 1   
    53   51   55 1   
    54   51   56 1   
    55   52   53 2   
    56   52   57 1   
    57   57   58 1   
    58   57   65 1   
    59   58   59 1   
    60   58   61 1   
    61   58   66 1   
    62   59   60 2   
    63   59   69 1   
    64   61   62 1   
    65   61   67 1   
    66   61   68 1   
    67   62   63 1   
    68   62   64 1   
    69   69   70 1   
    70   69   73 1   
    71   70   71 1   
    72   70   74 1   
    73   70   75 1   
    74   71   72 2   
    75   71   76 1   
    76   76   77 1   
    77   76   85 1   
    78   77   78 1   
    79   77   80 1   
    80   77   86 1   
    81   78   79 2   
    82   78   93 1   
    83   80   81 1   
    84   80   87 1   
    85   80   88 1   
    86   81   82 1   
    87   81   89 1   
    88   81   90 1   
    89   82   83 1   
    90   82   84 2   
    91   83   91 1   
    92   83   92 1   
    93   93   94 1   
    94   93  100 1   
    95   94   95 1   
    96   94   97 1   
    97   94  101 1   
    98   95   96 2   
    99   95  109 1   
   100   97   98 1   
   101   97   99 1   
   102   97  102 1   
   103   98  103 1   
   104   98  104 1   
   105   98  105 1   
   106   99  106 1   
   107   99  107 1   
   108   99  108 1   
   109  109  110 1   
   110  109  117 1   
   111  110  111 1   
   112  110  113 1   
   113  110  118 1   
   114  111  112 2   
   115  111  123 1   
   116  113  114 1   
   117  113  119 1   
   118  113  120 1   
   119  114  115 1   
   120  114  116 2   
   121  115  121 1   
   122  115  122 1   
   123  123  124 1   
   124  123  135 1   
   125  124  125 1   
   126  124  127 1   
   127  124  136 1   
   128  125  126 2   
   129  125  144 1   
   130  127  128 1   
   131  127  137 1   
   132  127  138 1   
   133  128  129 ar  
   134  128  130 ar  
   135  129  131 ar  
   136  129  139 1   
   137  130  132 ar  
   138  130  140 1   
   139  131  133 ar  
   140  131  141 1   
   141  132  133 ar  
   142  132  142 1   
   143  133  134 1   
   144  134  143 1   
   145  144  145 1   
   146  144  153 1   
   147  145  146 1   
   148  145  148 1   
   149  145  154 1   
   150  146  147 2   
   151  146  159 1   
   152  148  149 1   
   153  148  155 1   
   154  148  156 1   
   155  149  150 1   
   156  149  157 1   
   157  149  158 1   
   158  150  151 1   
   159  150  152 1   
   160  159  160 1   
   161  159  168 1   
   162  160  161 1   
   163  160  163 1   
   164  160  169 1   
   165  161  162 2   
   166  161  174 1   
   167  163  164 1   
   168  163  170 1   
   169  163  171 1   
   170  164  165 1   
   171  164  172 1   
   172  164  173 1   
   173  165  166 1   
   174  165  167 1   
   175  174  175 1   
   176  174  179 1   
   177  175  176 1   
   178  175  177 1   
   179  175  178 1   
   180  181  182 1   
   181  181  183 1   
   182  184  185 1   
   183  184  186 1   
   184  187  188 1   
   185  187  189 1   
@<TRIPOS>SUBSTRUCTURE
     1 MOL         1 TEMP              0 ****  ****    0 ROOT
