@<TRIPOS>MOLECULE
MOL
  182   178     1     0     0
SMALL
resp


@<TRIPOS>ATOM
      1 C1          2.1910    2.5810    5.6080 c3        1 MOL     -0.327195
      2 C2          1.5160    2.3290    4.2120 c         1 MOL      0.681474
      3 O1          2.2120    2.3030    3.1910 o         1 MOL     -0.604648
      4 H1          1.4640    3.0230    6.2880 hc        1 MOL      0.089479
      5 H2          2.5430    1.6350    6.0180 hc        1 MOL      0.089479
      6 H3          3.0340    3.2610    5.4870 hc        1 MOL      0.089479
      7 N1          0.2180    2.1100    4.1650 n         1 MOL     -0.531843
      8 C3         -0.5810    1.9060    2.8990 c3        1 MOL      0.014338
      9 C4         -0.9560    3.3190    2.2620 c         1 MOL      0.395900
     10 O2         -1.9930    3.9160    2.5120 o         1 MOL     -0.480294
     11 C5         -1.8170    1.0960    3.2760 c3        1 MOL     -0.051869
     12 C6         -2.6620    0.8000    2.0190 c         1 MOL      0.777324
     13 O3         -3.8030    0.2660    2.1450 o         1 MOL     -0.796996
     14 O4         -2.1930    0.9390    0.8800 o         1 MOL     -0.796996
     15 H4         -0.3120    2.1540    5.0260 hn        1 MOL      0.309913
     16 H5         -0.0340    1.3100    2.1700 h1        1 MOL      0.110265
     17 H6         -2.4940    1.5660    3.9980 hc        1 MOL      0.026252
     18 H7         -1.4620    0.1800    3.7470 hc        1 MOL      0.026252
     19 N2         -0.1790    3.7560    1.2540 n         1 MOL     -0.038315
     20 C7          0.1020    5.1270    0.8090 c3        1 MOL     -0.076456
     21 C8         -1.0920    5.6630    0.0140 c         1 MOL      0.478363
     22 O5         -1.3300    6.8610   -0.0650 o         1 MOL     -0.593847
     23 C9          1.3650    4.9590   -0.0880 c3        1 MOL     -0.156410
     24 C10         1.6710    6.2440   -0.9160 c3        1 MOL     -0.081637
     25 C11         3.1950    6.2480   -1.3300 c3        1 MOL     -0.148723
     26 C12         3.6590    7.5300   -2.0090 c3        1 MOL      0.116059
     27 N3          4.9790    7.4090   -2.6350 n4        1 MOL     -0.448819
     28 H8          0.5470    3.1060    1.0020 hn        1 MOL      0.093026
     29 H9          0.3050    5.7750    1.6590 h1        1 MOL      0.103169
     30 H10         1.2990    4.1480   -0.8160 hc        1 MOL      0.124012
     31 H11         2.1860    4.8030    0.6150 hc        1 MOL      0.124012
     32 H12         1.5690    7.1020   -0.2650 hc        1 MOL      0.055051
     33 H13         0.9710    6.3370   -1.7510 hc        1 MOL      0.055051
     34 H14         3.4180    5.4160   -1.9880 hc        1 MOL      0.074025
     35 H15         3.7920    6.0790   -0.4350 hc        1 MOL      0.074025
     36 H16         3.6720    8.3480   -1.2840 hx        1 MOL      0.081587
     37 H17         2.9670    7.9960   -2.7040 hx        1 MOL      0.081587
     38 H18         5.2250    8.2630   -3.1180 hn        1 MOL      0.349469
     39 H19         5.7220    7.3650   -1.9420 hn        1 MOL      0.349469
     40 H20         5.0520    6.5430   -3.1570 hn        1 MOL      0.349469
     41 N4         -1.8980    4.8120   -0.5740 n         1 MOL     -0.086589
     42 C13        -3.1610    5.0770   -1.2300 c3        1 MOL      0.031222
     43 C14        -4.4270    4.5900   -0.4000 c         1 MOL      0.388504
     44 O6         -5.5470    4.9870   -0.7650 o         1 MOL     -0.515119
     45 C15        -3.2910    4.5390   -2.6700 c3        1 MOL     -0.311742
     46 C16        -3.2520    3.0320   -2.8220 c         1 MOL      0.778675
     47 O7         -3.7080    2.5380   -3.8720 o         1 MOL     -0.720611
     48 O8         -2.7170    2.2430   -1.9660 o         1 MOL     -0.720611
     49 H21        -1.6190    3.8420   -0.4590 hn        1 MOL      0.020104
     50 H22        -3.3450    6.1470   -1.3570 h1        1 MOL      0.093242
     51 H23        -2.3870    4.8530   -3.1910 hc        1 MOL      0.094497
     52 H24        -4.2210    4.8240   -3.1530 hc        1 MOL      0.094497
     53 N5         -4.1260    3.8300    0.6900 n         1 MOL     -0.091945
     54 C17        -5.1560    3.2720    1.6240 c3        1 MOL     -0.076599
     55 C18        -6.0170    2.1450    0.9360 c         1 MOL      0.434739
     56 O9         -7.1950    2.0720    1.3720 o         1 MOL     -0.564916
     57 H25        -3.1590    3.8090    0.9760 hn        1 MOL      0.058683
     58 H26        -5.7770    4.0980    1.9590 h1        1 MOL      0.087723
     59 H27        -4.6450    2.8430    2.4850 h1        1 MOL      0.087723
     60 N6         -5.5890    1.4050   -0.0400 n         1 MOL     -0.076406
     61 C19        -6.3680    0.4740   -0.8350 c3        1 MOL     -0.194225
     62 C20        -6.7870   -0.7660   -0.0510 c         1 MOL      0.495275
     63 O10        -7.7140   -1.4640   -0.4710 o         1 MOL     -0.556864
     64 C21        -5.6410    0.0460   -2.0910 c3        1 MOL     -0.127443
     65 C22        -4.7160   -1.1170   -1.8500 c         1 MOL      0.317392
     66 N7         -4.9490   -2.2890   -2.5080 n         1 MOL     -0.700326
     67 O11        -3.7250   -1.0320   -1.1470 o         1 MOL     -0.427410
     68 H28        -4.6400    1.4920   -0.3710 hn        1 MOL      0.148763
     69 H29        -7.2730    1.0070   -1.0960 h1        1 MOL      0.130882
     70 H30        -5.0150    0.8890   -2.3720 hc        1 MOL      0.123384
     71 H31        -6.3300   -0.1230   -2.9080 hc        1 MOL      0.123384
     72 H32        -5.7350   -2.2990   -3.1360 hn        1 MOL      0.347410
     73 H33        -4.3880   -3.1120   -2.3540 hn        1 MOL      0.347410
     74 N8         -6.1070   -0.9930    1.0760 n         1 MOL     -0.203453
     75 C23        -6.3460   -1.9920    2.0830 c3        1 MOL     -0.120116
     76 C24        -5.1950   -2.9590    2.3230 c         1 MOL      0.548678
     77 O12        -5.3790   -3.7860    3.2410 o         1 MOL     -0.582953
     78 H34        -5.2710   -0.4350    1.2070 hn        1 MOL      0.306698
     79 H35        -7.1620   -2.6180    1.7280 h1        1 MOL      0.084090
     80 H36        -6.6560   -1.5630    3.0380 h1        1 MOL      0.084090
     81 N9         -4.0960   -2.8380    1.6030 n         1 MOL     -0.293779
     82 C25        -2.9070   -3.7100    1.8270 c3        1 MOL     -0.085620
     83 C26        -1.6090   -2.9780    1.3420 c         1 MOL      0.685706
     84 O13        -1.5530   -2.2750    0.4000 o         1 MOL     -0.579729
     85 C27        -3.0390   -5.1000    1.1560 c3        1 MOL     -0.095606
     86 C28        -3.5570   -5.0200   -0.2950 ca        1 MOL     -0.016949
     87 C29        -2.5840   -5.0350   -1.3100 ca        1 MOL     -0.078224
     88 C30        -4.9200   -5.0310   -0.6360 ca        1 MOL     -0.078224
     89 C31        -2.9990   -5.2490   -2.6430 ca        1 MOL     -0.353404
     90 C32        -5.3300   -5.2660   -1.9230 ca        1 MOL     -0.353404
     91 C33        -4.3820   -5.3980   -2.8870 ca        1 MOL      0.464519
     92 O14        -4.7770   -5.6590   -4.1850 oh        1 MOL     -0.575742
     93 H37        -4.1410   -2.1140    0.9040 hn        1 MOL      0.265385
     94 H38        -2.7340   -3.9490    2.8700 h1        1 MOL      0.085716
     95 H39        -3.6630   -5.7460    1.7630 hc        1 MOL      0.065811
     96 H40        -2.0290   -5.4970    1.1460 hc        1 MOL      0.065811
     97 H41        -1.5300   -4.9390   -1.0950 ha        1 MOL      0.140963
     98 H42        -5.5660   -4.9410    0.2270 ha        1 MOL      0.140963
     99 H43        -2.3100   -5.4010   -3.4570 ha        1 MOL      0.168688
    100 H44        -6.4070   -5.2280   -2.0320 ha        1 MOL      0.168688
    101 H45        -5.7270   -5.5350   -4.2550 ho        1 MOL      0.400013
    102 N10        -0.5180   -3.2850    2.0670 n         1 MOL     -0.543017
    103 C34         0.8980   -2.7900    1.9420 c3        1 MOL     -0.047886
    104 C35         1.6970   -3.7470    1.0520 c         1 MOL      0.558846
    105 O15         1.5410   -4.9570    1.0360 o         1 MOL     -0.574087
    106 C36         1.7320   -2.7350    3.2620 c3        1 MOL      0.180139
    107 C37         1.0480   -2.0340    4.4810 c3        1 MOL      0.291718
    108 C38         2.9770   -1.9580    2.9660 c3        1 MOL     -0.457282
    109 C39         1.5550   -2.5970    5.7950 c3        1 MOL     -0.229409
    110 H46        -0.6680   -4.1080    2.6270 hn        1 MOL      0.292103
    111 H47         0.8360   -1.7970    1.5010 h1        1 MOL      0.098163
    112 H48         1.9980   -3.7550    3.5170 hc        1 MOL     -0.003730
    113 H49        -0.0110   -2.2770    4.4480 hc        1 MOL     -0.065746
    114 H50         1.1980   -0.9530    4.4210 hc        1 MOL     -0.065746
    115 H51         2.7650   -0.9430    2.6250 hc        1 MOL      0.094572
    116 H52         3.5760   -1.9070    3.8710 hc        1 MOL      0.094572
    117 H53         3.5440   -2.4890    2.1980 hc        1 MOL      0.094572
    118 H54         2.6410   -2.6010    5.8490 hc        1 MOL      0.043225
    119 H55         1.1820   -1.9380    6.5800 hc        1 MOL      0.043225
    120 H56         1.2430   -3.6480    5.8530 hc        1 MOL      0.043225
    121 N11         2.4350   -3.2070    0.0800 n         1 MOL     -0.199050
    122 C40         3.4230   -3.8990   -0.7480 c3        1 MOL     -0.057484
    123 C41         4.8020   -3.3330   -0.3920 c         1 MOL      0.445001
    124 O16         4.9260   -2.2070    0.0340 o         1 MOL     -0.291980
    125 C42         2.9760   -3.7000   -2.1790 c3        1 MOL      0.011041
    126 O17         2.9690   -2.3160   -2.5640 oh        1 MOL     -0.599081
    127 H57         2.5370   -2.2020    0.0250 hn        1 MOL      0.136597
    128 H58         3.5210   -4.9700   -0.5940 h1        1 MOL      0.070659
    129 H59         1.9800   -4.1350   -2.2920 h1        1 MOL      0.077517
    130 H60         3.5840   -4.2560   -2.8950 h1        1 MOL      0.077517
    131 H61         2.1560   -1.9040   -2.2740 ho        1 MOL      0.413091
    132 N12         5.9190   -4.0830   -0.5940 n         1 MOL     -0.453768
    133 C43         7.3400   -3.6890   -0.3200 c3        1 MOL     -0.021950
    134 C44         7.7830   -2.3700   -0.8890 c         1 MOL      0.696386
    135 O18         8.6010   -1.7570   -0.2470 o         1 MOL     -0.548073
    136 C45         8.2410   -4.8100   -0.9360 c3        1 MOL     -0.360692
    137 H62         5.7530   -4.9340   -1.1180 hn        1 MOL      0.290516
    138 H63         7.4810   -3.5540    0.7570 h1        1 MOL      0.135756
    139 H64         8.1660   -4.8440   -2.0250 hc        1 MOL      0.119510
    140 H65         9.3020   -4.5950   -0.8000 hc        1 MOL      0.119510
    141 H66         7.9390   -5.8080   -0.6020 hc        1 MOL      0.119510
    142 N13         7.2870   -1.8310   -2.0330 n         1 MOL     -0.609967
    143 C46         7.6660   -0.5050   -2.5060 c3        1 MOL      0.203065
    144 C47         7.0460    0.5700   -1.5430 c         1 MOL      0.269529
    145 O19         7.7030    1.5580   -1.2510 o         1 MOL     -0.498644
    146 C48         7.4410   -0.3120   -3.9720 c3        1 MOL     -0.240531
    147 H67         6.5380   -2.2870   -2.5360 hn        1 MOL      0.321002
    148 H68         8.7460   -0.3760   -2.4380 h1        1 MOL      0.090968
    149 H69         7.9210    0.5850   -4.3780 hc        1 MOL      0.068864
    150 H70         7.9140   -1.1220   -4.5350 hc        1 MOL      0.068864
    151 H71         6.3860   -0.3740   -4.2310 hc        1 MOL      0.068864
    152 N14         5.8770    0.3250   -0.9190 n         1 MOL     -0.008546
    153 C49         5.2630    1.2140   -0.0210 c3        1 MOL     -0.241067
    154 C50         6.1080    1.2090    1.2780 c         1 MOL      0.495670
    155 O20         6.2880    2.1970    1.9910 o         1 MOL     -0.549576
    156 C51         3.8780    0.8380    0.3400 c3        1 MOL     -0.032992
    157 C52         3.0090    0.7640   -0.9220 c3        1 MOL     -0.086502
    158 C53         1.5930    0.3880   -0.6770 c         1 MOL      0.889467
    159 O21         0.8210    1.2880   -0.3080 o         1 MOL     -0.779126
    160 O22         1.0520   -0.6990   -1.0220 o         1 MOL     -0.779126
    161 H72         5.3690   -0.4910   -1.2040 hn        1 MOL      0.180449
    162 H73         5.2790    2.2260   -0.4300 h1        1 MOL      0.094462
    163 H74         3.3990    1.4980    1.0560 hc        1 MOL      0.069076
    164 H75         3.9440   -0.1860    0.7210 hc        1 MOL      0.069076
    165 H76         3.3770   -0.0450   -1.5550 hc        1 MOL     -0.036265
    166 H77         2.9710    1.6680   -1.5410 hc        1 MOL     -0.036265
    167 N15         6.7060    0.0440    1.6120 n         1 MOL      0.011804
    168 C54         7.5560   -0.0850    2.7680 c3        1 MOL     -0.449560
    169 H78         7.0270    0.2760    3.6500 h1        1 MOL      0.150874
    170 H79         7.8220   -1.1330    2.9100 h1        1 MOL      0.150874
    171 H80         8.4630    0.5030    2.6220 h1        1 MOL      0.150874
    172 H81         6.5090   -0.7540    1.0220 hn        1 MOL      0.028163
    173 Ca1        -1.3470    0.1400   -1.3810 Ca        1 MOL      1.770374
    174 O23         0.0860    0.8000   -3.6090 oh        1 MOL     -0.847403
    175 H82         0.4800    1.6410   -3.8340 ho        1 MOL      0.405712
    176 H83         0.1520    0.2860   -4.4100 ho        1 MOL      0.405712
    177 O24        -0.8430   -2.2660   -2.3750 oh        1 MOL     -0.847403
    178 H84        -0.3960   -2.4840   -3.1920 ho        1 MOL      0.405712
    179 H85        -1.0820   -3.1020   -1.9950 ho        1 MOL      0.405712
    180 O25        -2.7380    0.1620   -4.2180 oh        1 MOL     -0.847403
    181 H86        -3.0770    1.0070   -3.9520 ho        1 MOL      0.405712
    182 H87        -2.4890    0.2760   -5.1300 ho        1 MOL      0.405712
@<TRIPOS>BOND
     1    1    2 1   
     2    1    4 1   
     3    1    5 1   
     4    1    6 1   
     5    2    3 2   
     6    2    7 1   
     7    7    8 1   
     8    7   15 1   
     9    8    9 1   
    10    8   11 1   
    11    8   16 1   
    12    9   10 2   
    13    9   19 1   
    14   11   12 1   
    15   11   17 1   
    16   11   18 1   
    17   12   13 1   
    18   12   14 1   
    19   19   20 1   
    20   19   28 1   
    21   20   21 1   
    22   20   23 1   
    23   20   29 1   
    24   21   22 2   
    25   21   41 1   
    26   23   24 1   
    27   23   30 1   
    28   23   31 1   
    29   24   25 1   
    30   24   32 1   
    31   24   33 1   
    32   25   26 1   
    33   25   34 1   
    34   25   35 1   
    35   26   27 1   
    36   26   36 1   
    37   26   37 1   
    38   27   38 1   
    39   27   39 1   
    40   27   40 1   
    41   41   42 1   
    42   41   49 1   
    43   42   43 1   
    44   42   45 1   
    45   42   50 1   
    46   43   44 2   
    47   43   53 1   
    48   45   46 1   
    49   45   51 1   
    50   45   52 1   
    51   46   47 1   
    52   46   48 1   
    53   53   54 1   
    54   53   57 1   
    55   54   55 1   
    56   54   58 1   
    57   54   59 1   
    58   55   56 2   
    59   55   60 1   
    60   60   61 1   
    61   60   68 1   
    62   61   62 1   
    63   61   64 1   
    64   61   69 1   
    65   62   63 2   
    66   62   74 1   
    67   64   65 1   
    68   64   70 1   
    69   64   71 1   
    70   65   66 1   
    71   65   67 2   
    72   66   72 1   
    73   66   73 1   
    74   74   75 1   
    75   74   78 1   
    76   75   76 1   
    77   75   79 1   
    78   75   80 1   
    79   76   77 2   
    80   76   81 1   
    81   81   82 1   
    82   81   93 1   
    83   82   83 1   
    84   82   85 1   
    85   82   94 1   
    86   83   84 2   
    87   83  102 1   
    88   85   86 1   
    89   85   95 1   
    90   85   96 1   
    91   86   87 ar  
    92   86   88 ar  
    93   87   89 ar  
    94   87   97 1   
    95   88   90 ar  
    96   88   98 1   
    97   89   91 ar  
    98   89   99 1   
    99   90   91 ar  
   100   90  100 1   
   101   91   92 1   
   102   92  101 1   
   103  102  103 1   
   104  102  110 1   
   105  103  104 1   
   106  103  106 1   
   107  103  111 1   
   108  104  105 2   
   109  104  121 1   
   110  106  107 1   
   111  106  108 1   
   112  106  112 1   
   113  107  109 1   
   114  107  113 1   
   115  107  114 1   
   116  108  115 1   
   117  108  116 1   
   118  108  117 1   
   119  109  118 1   
   120  109  119 1   
   121  109  120 1   
   122  121  122 1   
   123  121  127 1   
   124  122  123 1   
   125  122  125 1   
   126  122  128 1   
   127  123  124 2   
   128  123  132 1   
   129  125  126 1   
   130  125  129 1   
   131  125  130 1   
   132  126  131 1   
   133  132  133 1   
   134  132  137 1   
   135  133  134 1   
   136  133  136 1   
   137  133  138 1   
   138  134  135 2   
   139  134  142 1   
   140  136  139 1   
   141  136  140 1   
   142  136  141 1   
   143  142  143 1   
   144  142  147 1   
   145  143  144 1   
   146  143  146 1   
   147  143  148 1   
   148  144  145 2   
   149  144  152 1   
   150  146  149 1   
   151  146  150 1   
   152  146  151 1   
   153  152  153 1   
   154  152  161 1   
   155  153  154 1   
   156  153  156 1   
   157  153  162 1   
   158  154  155 2   
   159  154  167 1   
   160  156  157 1   
   161  156  163 1   
   162  156  164 1   
   163  157  158 1   
   164  157  165 1   
   165  157  166 1   
   166  158  159 1   
   167  158  160 1   
   168  167  168 1   
   169  167  172 1   
   170  168  169 1   
   171  168  170 1   
   172  168  171 1   
   173  174  175 1   
   174  174  176 1   
   175  177  178 1   
   176  177  179 1   
   177  180  181 1   
   178  180  182 1   
@<TRIPOS>SUBSTRUCTURE
     1 MOL         1 TEMP              0 ****  ****    0 ROOT
