@<TRIPOS>MOLECULE
MOL
  175   173     1     0     0
SMALL
resp


@<TRIPOS>ATOM
      1 C1          0.8990    4.0390    5.2150 c3        1 MOL     -0.313222
      2 C2          0.1920    4.1660    3.8480 c         1 MOL      0.687824
      3 O1          0.7930    4.6010    2.8810 o         1 MOL     -0.515845
      4 H1          1.7560    3.3720    5.1200 hc        1 MOL      0.068815
      5 H2          1.2380    5.0220    5.5420 hc        1 MOL      0.068815
      6 H3          0.2020    3.6330    5.9480 hc        1 MOL      0.068815
      7 N1         -1.1170    3.9120    3.8760 n         1 MOL     -0.573501
      8 C3         -1.8760    3.5100    2.6710 c3        1 MOL      0.016498
      9 C4         -2.1140    4.6780    1.7500 c         1 MOL      0.729225
     10 O2         -2.2200    5.7930    2.2480 o         1 MOL     -0.586422
     11 C5         -3.2620    2.9500    3.0840 c3        1 MOL     -0.360230
     12 C6         -4.0410    2.3540    1.9020 c         1 MOL      0.717719
     13 O3         -5.2540    2.4200    1.9220 o         1 MOL     -0.636390
     14 O4         -3.4620    1.8550    0.8820 o         1 MOL     -0.636390
     15 H4         -1.4950    3.5930    4.7620 hn        1 MOL      0.324770
     16 H5         -1.3100    2.7440    2.1470 h1        1 MOL      0.109960
     17 H6         -3.8530    3.7780    3.4860 hc        1 MOL      0.080104
     18 H7         -3.1300    2.0780    3.7180 hc        1 MOL      0.080104
     19 N2         -2.0880    4.4920    0.4770 n         1 MOL     -0.643125
     20 C7         -2.3190    5.5380   -0.5220 c3        1 MOL      0.373498
     21 C8         -3.4560    5.2840   -1.6020 c         1 MOL      0.334765
     22 O5         -3.6650    6.1170   -2.4680 o         1 MOL     -0.530588
     23 C9         -0.8920    5.9040   -0.9960 c3        1 MOL     -0.116190
     24 H8         -1.9910    3.5260    0.1880 hn        1 MOL      0.297020
     25 H9         -2.6120    6.3900    0.1040 h1        1 MOL     -0.021862
     26 H10        -0.3640    5.0680   -1.4560 hc        1 MOL      0.030692
     27 H11        -0.9370    6.6680   -1.7730 hc        1 MOL      0.030692
     28 H12        -0.3060    6.2780   -0.1540 hc        1 MOL      0.030692
     29 N3         -3.9510    4.0380   -1.6400 n         1 MOL     -0.267536
     30 C10        -4.8870    3.4900   -2.6520 c3        1 MOL      0.236117
     31 C11        -6.0590    2.6770   -2.1050 c         1 MOL      0.237200
     32 O6         -7.0120    2.4300   -2.8620 o         1 MOL     -0.532029
     33 C12        -4.1310    2.6180   -3.6660 c3        1 MOL     -0.285257
     34 C13        -3.3940    1.4410   -2.9490 c         1 MOL      0.738163
     35 O7         -4.0190    0.6380   -2.2150 o         1 MOL     -0.729677
     36 O8         -2.1420    1.3070   -2.9460 o         1 MOL     -0.729677
     37 H13        -3.6840    3.3800   -0.9220 hn        1 MOL      0.172602
     38 H14        -5.4450    4.2350   -3.2070 h1        1 MOL      0.057125
     39 H15        -3.4610    3.2070   -4.2880 hc        1 MOL      0.069165
     40 H16        -4.9010    2.1580   -4.2870 hc        1 MOL      0.069165
     41 N4         -6.0510    2.1360   -0.8720 n         1 MOL     -0.054629
     42 C14        -7.2470    1.4380   -0.3040 c3        1 MOL     -0.273177
     43 C15        -7.3360   -0.0470   -0.7470 c         1 MOL      0.548387
     44 O9         -8.3370   -0.6640   -0.4060 o         1 MOL     -0.616243
     45 H17        -5.3150    2.3840   -0.2190 hn        1 MOL      0.091630
     46 H18        -8.1740    1.8730   -0.6580 h1        1 MOL      0.137018
     47 H19        -7.2390    1.5050    0.7920 h1        1 MOL      0.137018
     48 N5         -6.5060   -0.6050   -1.6270 n         1 MOL     -0.336853
     49 C16        -6.5430   -2.0210   -2.0270 c3        1 MOL      0.024107
     50 C17        -6.5670   -3.1380   -0.9040 c         1 MOL      0.429907
     51 O10        -6.8000   -4.2620   -1.1500 o         1 MOL     -0.545519
     52 C18        -5.3990   -2.2700   -3.0590 c3        1 MOL     -0.141239
     53 C19        -4.0050   -2.1410   -2.4580 c         1 MOL      0.521129
     54 N6         -3.0330   -2.0850   -3.3380 n         1 MOL     -0.650036
     55 O11        -3.7340   -2.1980   -1.2360 o         1 MOL     -0.450639
     56 H20        -5.6850   -0.0650   -1.8620 hn        1 MOL      0.305749
     57 H21        -7.4120   -2.2480   -2.6500 h1        1 MOL      0.076792
     58 H22        -5.5830   -1.6430   -3.9360 hc        1 MOL      0.055305
     59 H23        -5.4630   -3.3010   -3.4140 hc        1 MOL      0.055305
     60 H24        -3.2950   -2.0370   -4.3100 hn        1 MOL      0.336467
     61 H25        -2.1340   -1.9140   -2.9150 hn        1 MOL      0.336467
     62 N7         -6.2990   -2.8110    0.3440 n         1 MOL     -0.055804
     63 C20        -6.3620   -3.8000    1.4660 c3        1 MOL     -0.337854
     64 C21        -5.0580   -4.5160    1.8390 c         1 MOL      0.572248
     65 O12        -5.0140   -5.3690    2.7330 o         1 MOL     -0.608777
     66 H26        -6.2840   -1.8360    0.5690 hn        1 MOL      0.161446
     67 H27        -7.0510   -4.6070    1.2020 h1        1 MOL      0.128774
     68 H28        -6.7660   -3.3340    2.3640 h1        1 MOL      0.128774
     69 N8         -3.9890   -4.1190    1.2060 n         1 MOL     -0.105284
     70 C22        -2.5950   -4.5580    1.4400 c3        1 MOL     -0.292987
     71 C23        -1.6130   -3.4220    1.5280 c         1 MOL      0.602035
     72 O13        -1.6990   -2.4590    0.8550 o         1 MOL     -0.485495
     73 C24        -2.1270   -5.4290    0.1790 c3        1 MOL      0.530788
     74 C25        -3.0430   -6.6570   -0.1040 c3        1 MOL     -0.631368
     75 O14        -2.2180   -4.6220   -1.0450 oh        1 MOL     -0.578119
     76 H29        -4.1370   -3.2620    0.7010 hn        1 MOL      0.081948
     77 H30        -2.5290   -5.2050    2.3170 h1        1 MOL      0.106967
     78 H31        -1.0670   -5.6260    0.3500 h1        1 MOL     -0.043268
     79 H32        -1.8970   -3.7350   -0.8760 ho        1 MOL      0.292258
     80 H33        -3.5150   -6.9170    0.8450 hc        1 MOL      0.169875
     81 H34        -3.7440   -6.3580   -0.8860 hc        1 MOL      0.169875
     82 H35        -2.4500   -7.4740   -0.5150 hc        1 MOL      0.169875
     83 N9         -0.4810   -3.6270    2.2210 n         1 MOL     -0.529248
     84 C26         0.7190   -2.7600    2.0460 c3        1 MOL     -0.114438
     85 C27         1.4670   -3.1050    0.7620 c         1 MOL      0.610070
     86 O15         1.9220   -4.2170    0.4550 o         1 MOL     -0.612928
     87 C28         1.5920   -2.8130    3.3370 c3        1 MOL      0.326177
     88 C29         0.9030   -2.4680    4.6430 c3        1 MOL      0.278659
     89 C30         2.8340   -1.9700    3.0660 c3        1 MOL     -0.388199
     90 C31         1.6010   -2.9720    5.9910 c3        1 MOL     -0.341134
     91 H36        -0.3000   -4.5360    2.6260 hn        1 MOL      0.289243
     92 H37         0.3440   -1.7410    1.9100 h1        1 MOL     -0.000373
     93 H38         1.8680   -3.8630    3.4040 hc        1 MOL     -0.066485
     94 H39        -0.1120   -2.8580    4.6430 hc        1 MOL     -0.080444
     95 H40         0.8070   -1.3840    4.6750 hc        1 MOL     -0.080444
     96 H41         3.4390   -2.0420    3.9680 hc        1 MOL      0.067900
     97 H42         3.3510   -2.4020    2.2080 hc        1 MOL      0.067900
     98 H43         2.5120   -0.9450    2.9220 hc        1 MOL      0.067900
     99 H44         1.0190   -2.5150    6.7880 hc        1 MOL      0.070312
    100 H45         1.5520   -4.0610    5.9290 hc        1 MOL      0.070312
    101 H46         2.5980   -2.5390    5.9500 hc        1 MOL      0.070312
    102 N10         1.7110   -2.0240    0.0880 n         1 MOL     -0.245183
    103 C32         2.5920   -2.0070   -1.1300 c3        1 MOL      0.050078
    104 C33         3.9970   -1.4490   -0.8440 c         1 MOL      0.400814
    105 O16         4.1720   -0.7340    0.1490 o         1 MOL     -0.315589
    106 C34         1.9000   -1.1520   -2.1280 c3        1 MOL     -0.126014
    107 C35         0.5030   -1.7190   -2.5200 c         1 MOL      0.702335
    108 O17         0.4880   -2.4060   -3.5560 o         1 MOL     -0.667167
    109 O18        -0.4700   -1.4280   -1.8180 o         1 MOL     -0.667167
    110 H47         1.2270   -1.1500    0.2030 hn        1 MOL      0.283524
    111 H48         2.5800   -3.0060   -1.5510 h1        1 MOL      0.061236
    112 H49         2.5280   -1.1190   -3.0110 hc        1 MOL      0.001093
    113 H50         1.7370   -0.1580   -1.6950 hc        1 MOL      0.001093
    114 N11         5.0120   -1.6720   -1.7320 n         1 MOL     -0.749830
    115 C36         6.3840   -1.4040   -1.3050 c3        1 MOL      0.598966
    116 C37         6.7250    0.0860   -1.1210 c         1 MOL      0.173881
    117 O19         7.3500    0.4370   -0.0910 o         1 MOL     -0.471715
    118 C38         7.2490   -2.1450   -2.2330 c3        1 MOL     -0.406454
    119 C39         8.6980   -2.2150   -1.7920 ca        1 MOL      0.129485
    120 C40         9.7030   -1.6520   -2.6540 ca        1 MOL     -0.122507
    121 C41         9.0990   -2.7040   -0.5440 ca        1 MOL     -0.122507
    122 C42        11.0860   -1.7180   -2.3500 ca        1 MOL     -0.155106
    123 C43        10.4610   -2.6720   -0.1950 ca        1 MOL     -0.155106
    124 C44        11.5280   -2.2070   -1.0940 ca        1 MOL     -0.122046
    125 H51         4.7310   -1.9180   -2.6620 hn        1 MOL      0.373289
    126 H52         6.5370   -1.9740   -0.3930 h1        1 MOL      0.065047
    127 H53         7.1540   -1.5800   -3.1640 hc        1 MOL      0.105125
    128 H54         6.9020   -3.1770   -2.2430 hc        1 MOL      0.105125
    129 H55         9.4290   -1.1900   -3.5970 ha        1 MOL      0.107502
    130 H56         8.3690   -3.1230    0.1270 ha        1 MOL      0.107502
    131 H57        11.7820   -1.0820   -2.8910 ha        1 MOL      0.117379
    132 H58        10.7070   -3.1880    0.7190 ha        1 MOL      0.117379
    133 H59        12.5330   -2.0850   -0.7200 ha        1 MOL      0.124139
    134 N12         6.3040    1.0620   -2.0080 n         1 MOL     -0.000610
    135 C45         6.5580    2.4920   -1.6480 c3        1 MOL     -0.056290
    136 C46         5.8010    3.0090   -0.4200 c         1 MOL      0.358281
    137 O20         6.1530    4.0380    0.1680 o         1 MOL     -0.504906
    138 C47         6.1490    3.2410   -2.9070 c3        1 MOL     -0.168790
    139 C48         6.0470    2.1270   -3.9930 c3        1 MOL      0.100740
    140 C49         5.6160    0.8940   -3.2330 c3        1 MOL     -0.198520
    141 H60         7.6300    2.5200   -1.4830 h1        1 MOL      0.113569
    142 H61         5.2320    3.8370   -2.8670 hc        1 MOL      0.075996
    143 H62         6.9610    3.9090   -3.1860 hc        1 MOL      0.075996
    144 H63         5.5120    2.4240   -4.8930 hc        1 MOL     -0.000434
    145 H64         7.0210    1.8740   -4.4080 hc        1 MOL     -0.000434
    146 H65         4.5330    0.8400   -3.1030 h1        1 MOL      0.083807
    147 H66         5.8270   -0.0090   -3.7970 h1        1 MOL      0.083807
    148 N13         4.8270    2.2450    0.0950 n         1 MOL     -0.110336
    149 C50         4.2360    2.4120    1.3680 c3        1 MOL     -0.070379
    150 C51         5.1360    1.7560    2.4530 c         1 MOL      0.446039
    151 O21         5.3290    2.2790    3.5830 o         1 MOL     -0.576380
    152 C52         2.7620    1.9020    1.3950 c3        1 MOL      0.155778
    153 C53         1.9160    1.9980    0.1290 c3        1 MOL     -0.087608
    154 C54         0.5320    1.3200    0.2430 c         1 MOL      0.591774
    155 O22        -0.4520    1.8850   -0.2780 o         1 MOL     -0.660213
    156 O23         0.3940    0.2280    0.8130 o         1 MOL     -0.660213
    157 H67         4.4490    1.4570   -0.4010 hn        1 MOL      0.182100
    158 H68         4.1770    3.4680    1.6530 h1        1 MOL      0.085768
    159 H69         2.1500    2.4890    2.0760 hc        1 MOL     -0.045399
    160 H70         2.7580    0.8500    1.6850 hc        1 MOL     -0.045399
    161 H71         2.4840    1.5210   -0.6720 hc        1 MOL      0.019752
    162 H72         1.8260    3.0610   -0.1140 hc        1 MOL      0.019752
    163 N14         5.7280    0.5810    2.2270 n         1 MOL     -0.019213
    164 C55         6.7720   -0.0500    3.0490 c3        1 MOL     -0.187749
    165 H73         7.2860   -0.8090    2.4600 h1        1 MOL      0.071226
    166 H74         7.4870    0.7060    3.3720 h1        1 MOL      0.071226
    167 H75         6.3150   -0.5150    3.9220 h1        1 MOL      0.071226
    168 H76         5.5500    0.0580    1.3820 hn        1 MOL      0.023600
    169 Ca1        -2.1300   -0.1090   -0.2770 Ca        1 MOL      1.666195
    170 O24        -4.5740   -0.5260    1.0390 oh        1 MOL     -0.764736
    171 H77        -4.8010    0.3980    1.0380 ho        1 MOL      0.376890
    172 H78        -4.7410   -0.8160    1.9400 ho        1 MOL      0.376890
    173 O25        -1.7580    0.0160    2.4350 oh        1 MOL     -0.764736
    174 H79        -0.8490    0.2950    2.4820 ho        1 MOL      0.376890
    175 H80        -2.0920    0.1390    3.3260 ho        1 MOL      0.376890
@<TRIPOS>BOND
     1    1    2 1   
     2    1    4 1   
     3    1    5 1   
     4    1    6 1   
     5    2    3 2   
     6    2    7 1   
     7    7    8 1   
     8    7   15 1   
     9    8    9 1   
    10    8   11 1   
    11    8   16 1   
    12    9   10 2   
    13    9   19 1   
    14   11   12 1   
    15   11   17 1   
    16   11   18 1   
    17   12   13 1   
    18   12   14 1   
    19   19   20 1   
    20   19   24 1   
    21   20   21 1   
    22   20   23 1   
    23   20   25 1   
    24   21   22 2   
    25   21   29 1   
    26   23   26 1   
    27   23   27 1   
    28   23   28 1   
    29   29   30 1   
    30   29   37 1   
    31   30   31 1   
    32   30   33 1   
    33   30   38 1   
    34   31   32 2   
    35   31   41 1   
    36   33   34 1   
    37   33   39 1   
    38   33   40 1   
    39   34   35 1   
    40   34   36 1   
    41   41   42 1   
    42   41   45 1   
    43   42   43 1   
    44   42   46 1   
    45   42   47 1   
    46   43   44 2   
    47   43   48 1   
    48   48   49 1   
    49   48   56 1   
    50   49   50 1   
    51   49   52 1   
    52   49   57 1   
    53   50   51 2   
    54   50   62 1   
    55   52   53 1   
    56   52   58 1   
    57   52   59 1   
    58   53   54 1   
    59   53   55 2   
    60   54   60 1   
    61   54   61 1   
    62   62   63 1   
    63   62   66 1   
    64   63   64 1   
    65   63   67 1   
    66   63   68 1   
    67   64   65 2   
    68   64   69 1   
    69   69   70 1   
    70   69   76 1   
    71   70   71 1   
    72   70   73 1   
    73   70   77 1   
    74   71   72 2   
    75   71   83 1   
    76   73   74 1   
    77   73   75 1   
    78   73   78 1   
    79   74   80 1   
    80   74   81 1   
    81   74   82 1   
    82   75   79 1   
    83   83   84 1   
    84   83   91 1   
    85   84   85 1   
    86   84   87 1   
    87   84   92 1   
    88   85   86 2   
    89   85  102 1   
    90   87   88 1   
    91   87   89 1   
    92   87   93 1   
    93   88   90 1   
    94   88   94 1   
    95   88   95 1   
    96   89   96 1   
    97   89   97 1   
    98   89   98 1   
    99   90   99 1   
   100   90  100 1   
   101   90  101 1   
   102  102  103 1   
   103  102  110 1   
   104  103  104 1   
   105  103  106 1   
   106  103  111 1   
   107  104  105 2   
   108  104  114 1   
   109  106  107 1   
   110  106  112 1   
   111  106  113 1   
   112  107  108 1   
   113  107  109 1   
   114  114  115 1   
   115  114  125 1   
   116  115  116 1   
   117  115  118 1   
   118  115  126 1   
   119  116  117 2   
   120  116  134 1   
   121  118  119 1   
   122  118  127 1   
   123  118  128 1   
   124  119  120 ar  
   125  119  121 ar  
   126  120  122 ar  
   127  120  129 1   
   128  121  123 ar  
   129  121  130 1   
   130  122  124 ar  
   131  122  131 1   
   132  123  124 ar  
   133  123  132 1   
   134  124  133 1   
   135  134  135 1   
   136  134  140 1   
   137  135  136 1   
   138  135  138 1   
   139  135  141 1   
   140  136  137 2   
   141  136  148 1   
   142  138  139 1   
   143  138  142 1   
   144  138  143 1   
   145  139  140 1   
   146  139  144 1   
   147  139  145 1   
   148  140  146 1   
   149  140  147 1   
   150  148  149 1   
   151  148  157 1   
   152  149  150 1   
   153  149  152 1   
   154  149  158 1   
   155  150  151 2   
   156  150  163 1   
   157  152  153 1   
   158  152  159 1   
   159  152  160 1   
   160  153  154 1   
   161  153  161 1   
   162  153  162 1   
   163  154  155 1   
   164  154  156 1   
   165  163  164 1   
   166  163  168 1   
   167  164  165 1   
   168  164  166 1   
   169  164  167 1   
   170  170  171 1   
   171  170  172 1   
   172  173  174 1   
   173  173  175 1   
@<TRIPOS>SUBSTRUCTURE
     1 MOL         1 TEMP              0 ****  ****    0 ROOT
