@<TRIPOS>MOLECULE
MOL
  169   169     1     0     0
SMALL
resp


@<TRIPOS>ATOM
      1 C1         -0.0150   -3.1250    5.9430 c3        1 MOL     -0.327866
      2 C2          0.5130   -3.0510    4.4730 c         1 MOL      0.664165
      3 O1         -0.1800   -3.4720    3.5180 o         1 MOL     -0.584986
      4 H1          0.4600   -2.3450    6.5390 hc        1 MOL      0.083302
      5 H2         -1.0950   -2.9800    5.9500 hc        1 MOL      0.083302
      6 H3          0.2240   -4.1010    6.3660 hc        1 MOL      0.083302
      7 N1          1.6920   -2.4260    4.1940 n         1 MOL     -0.554348
      8 C3          2.1810   -2.1750    2.8430 c3        1 MOL      0.120771
      9 C4          2.7310   -3.4790    2.2640 c         1 MOL      0.598026
     10 O2          3.6940   -4.0170    2.8070 o         1 MOL     -0.575474
     11 C5          3.2780   -1.1370    3.0060 c3        1 MOL     -0.351790
     12 C6          3.8140   -0.6180    1.7060 c         1 MOL      0.796719
     13 O3          4.7620    0.1860    1.8550 o         1 MOL     -0.687745
     14 O4          3.3020   -0.9470    0.6000 o         1 MOL     -0.687745
     15 H4          2.2300   -2.0840    4.9800 hn        1 MOL      0.293787
     16 H5          1.3330   -1.7510    2.3050 h1        1 MOL      0.101400
     17 H6          4.1050   -1.6490    3.5030 hc        1 MOL      0.090058
     18 H7          2.9110   -0.2690    3.5520 hc        1 MOL      0.090058
     19 N2          2.1390   -4.0660    1.1680 n         1 MOL     -0.409967
     20 C7          2.5640   -5.3380    0.6020 c3        1 MOL      0.196456
     21 C8          3.6070   -5.2140   -0.5220 c         1 MOL      0.399068
     22 O5          4.6490   -5.9320   -0.3890 o         1 MOL     -0.548627
     23 C9          1.2460   -5.9040   -0.0030 c3        1 MOL     -0.363118
     24 H8          1.4250   -3.5690    0.6580 hn        1 MOL      0.249056
     25 H9          2.9610   -6.0080    1.3560 h1        1 MOL      0.059308
     26 H10         1.4070   -6.8390   -0.5230 hc        1 MOL      0.089475
     27 H11         0.5360   -6.0760    0.8070 hc        1 MOL      0.089475
     28 H12         0.7300   -5.2620   -0.7120 hc        1 MOL      0.089475
     29 N3          3.4490   -4.3030   -1.5170 n         1 MOL     -0.329433
     30 C10         4.5180   -4.0660   -2.5430 c3        1 MOL      0.006447
     31 C11         5.7650   -3.3170   -1.9050 c         1 MOL      0.325896
     32 O6          6.8710   -3.2420   -2.4320 o         1 MOL     -0.534072
     33 C12         3.9750   -3.1000   -3.6130 c3        1 MOL     -0.259890
     34 C13         3.3890   -1.7670   -3.1460 c         1 MOL      0.812110
     35 O7          2.1780   -1.5570   -3.3210 o         1 MOL     -0.761067
     36 O8          3.9280   -0.9640   -2.3820 o         1 MOL     -0.761067
     37 H13         2.6060   -3.7510   -1.6100 hn        1 MOL      0.307508
     38 H14         4.7500   -4.9990   -3.0540 h1        1 MOL      0.116018
     39 H15         3.2240   -3.7140   -4.1180 hc        1 MOL      0.063291
     40 H16         4.8030   -2.8130   -4.2700 hc        1 MOL      0.063291
     41 N4          5.6290   -2.8140   -0.6930 n         1 MOL      0.100939
     42 C14         6.6950   -2.2330    0.0890 c3        1 MOL     -0.369927
     43 C15         7.1920   -0.8440   -0.3660 c         1 MOL      0.591106
     44 O9          8.4190   -0.6530   -0.2490 o         1 MOL     -0.604411
     45 H17         4.6500   -2.8170   -0.4350 hn        1 MOL      0.073866
     46 H18         7.5130   -2.9480    0.0920 h1        1 MOL      0.134803
     47 H19         6.2450   -2.0600    1.0700 h1        1 MOL      0.134803
     48 N5          6.3980   -0.1080   -1.0860 n         1 MOL     -0.158131
     49 C16         6.8910    1.1100   -1.6570 c3        1 MOL     -0.050518
     50 C17         6.9500    2.2380   -0.5830 c         1 MOL      0.364492
     51 O10         7.5390    3.3120   -0.8700 o         1 MOL     -0.542967
     52 C18         6.0710    1.4440   -2.8830 c3        1 MOL     -0.207227
     53 C19         4.6590    2.0160   -2.6110 c         1 MOL      0.653207
     54 N6          3.9450    2.3940   -3.6550 n         1 MOL     -0.734117
     55 O11         4.0040    1.8980   -1.5940 o         1 MOL     -0.627914
     56 H20         5.4110   -0.3230   -1.1610 hn        1 MOL      0.169619
     57 H21         7.8990    0.9430   -2.0430 h1        1 MOL      0.115296
     58 H22         5.9050    0.6400   -3.5980 hc        1 MOL      0.086375
     59 H23         6.5600    2.2590   -3.4300 hc        1 MOL      0.086375
     60 H24         4.3420    2.3910   -4.5860 hn        1 MOL      0.350208
     61 H25         3.0610    2.8230   -3.4340 hn        1 MOL      0.350208
     62 N7          6.3120    2.0980    0.6040 n         1 MOL     -0.095251
     63 C20         6.2640    3.1590    1.6830 c3        1 MOL     -0.276623
     64 C21         5.0610    4.1060    1.5810 c         1 MOL      0.576245
     65 O12         5.1190    5.2110    2.1580 o         1 MOL     -0.562575
     66 H26         5.7590    1.2790    0.8100 hn        1 MOL      0.140262
     67 H27         7.2000    3.7020    1.6700 h1        1 MOL      0.129627
     68 H28         6.0950    2.6100    2.6000 h1        1 MOL      0.129627
     69 N8          4.0420    3.7980    0.7440 n         1 MOL     -0.214449
     70 C22         2.7180    4.4550    0.8850 c3        1 MOL     -0.305644
     71 C23         1.5910    3.4900    0.8050 c         1 MOL      0.912202
     72 O13         1.7080    2.3740    0.2690 o         1 MOL     -0.725908
     73 C24         2.4330    5.5440   -0.0900 c3        1 MOL      0.363481
     74 C25         3.3490    6.8170    0.1530 c3        1 MOL     -0.550026
     75 O14         2.5930    5.1920   -1.4660 oh        1 MOL     -0.554065
     76 H29         4.0020    2.8990    0.2830 hn        1 MOL      0.225216
     77 H30         2.5450    4.9080    1.8520 h1        1 MOL      0.099342
     78 H31         1.3980    5.8550    0.0430 h1        1 MOL      0.062711
     79 H32         3.5090    4.8860   -1.4750 ho        1 MOL      0.354780
     80 H33         3.2410    7.2670    1.1410 hc        1 MOL      0.137751
     81 H34         4.4070    6.5840    0.0510 hc        1 MOL      0.137751
     82 H35         3.1680    7.5490   -0.6410 hc        1 MOL      0.137751
     83 N9          0.4280    3.8440    1.3670 n         1 MOL     -0.720838
     84 C26        -0.7720    2.9770    1.4630 c3        1 MOL     -0.057992
     85 C27        -1.5820    3.2070    0.2320 c         1 MOL      0.593499
     86 O15        -1.9480    4.3290   -0.1770 o         1 MOL     -0.592997
     87 C28        -1.6420    3.3200    2.7430 c3        1 MOL      0.162959
     88 C29        -0.9740    3.4730    4.1520 c3        1 MOL      0.145977
     89 C30        -2.7460    2.2440    2.9320 c3        1 MOL     -0.365995
     90 C31        -1.9620    3.7890    5.2510 c3        1 MOL     -0.122157
     91 H36         0.3800    4.8130    1.6400 hn        1 MOL      0.321042
     92 H37        -0.3800    1.9750    1.6380 h1        1 MOL      0.179731
     93 H38        -2.1820    4.2390    2.5460 hc        1 MOL     -0.016040
     94 H39        -0.2540    4.2940    4.1040 hc        1 MOL     -0.029541
     95 H40        -0.4190    2.5510    4.3760 hc        1 MOL     -0.029541
     96 H41        -3.2460    1.9270    2.0120 hc        1 MOL      0.069716
     97 H42        -2.2610    1.3480    3.3350 hc        1 MOL      0.069716
     98 H43        -3.5600    2.6040    3.5600 hc        1 MOL      0.069716
     99 H44        -1.4160    4.1430    6.1280 hc        1 MOL      0.018938
    100 H45        -2.5130    4.6470    4.8770 hc        1 MOL      0.018938
    101 H46        -2.6360    2.9650    5.5080 hc        1 MOL      0.018938
    102 N10        -1.9400    2.0970   -0.4480 n         1 MOL     -0.164759
    103 C32        -2.9670    1.9820   -1.5000 c3        1 MOL      0.124673
    104 C33        -4.3180    1.5610   -0.9140 c         1 MOL      0.206603
    105 O16        -4.4260    0.9260    0.1060 o         1 MOL     -0.083309
    106 C34        -2.4670    1.0840   -2.6410 c3        1 MOL     -0.121769
    107 C35        -1.0140    1.3310   -3.2070 c         1 MOL      0.591921
    108 O17        -0.0800    0.8140   -2.5510 o         1 MOL     -0.655504
    109 O18        -0.7840    2.0080   -4.2740 o         1 MOL     -0.655504
    110 H47        -1.4990    1.2260   -0.1850 hn        1 MOL      0.048862
    111 H48        -3.0890    2.9750   -1.9450 h1        1 MOL      0.044979
    112 H49        -3.1800    1.1760   -3.4610 hc        1 MOL      0.021211
    113 H50        -2.5860    0.0660   -2.2630 hc        1 MOL      0.021211
    114 N11        -5.3840    1.9110   -1.6660 n         1 MOL     -0.559387
    115 C36        -6.6770    1.4090   -1.3190 c3        1 MOL      0.326986
    116 C37        -6.8560   -0.0720   -0.7920 c         1 MOL      0.499591
    117 O19        -7.3440   -0.2210    0.3270 o         1 MOL     -0.538592
    118 C38        -7.7100    1.8380   -2.3850 c3        1 MOL     -0.160088
    119 C39        -9.0600    1.2030   -1.9730 ca        1 MOL      0.093216
    120 C40        -9.5030    0.0290   -2.6240 ca        1 MOL     -0.228833
    121 C41        -9.8600    1.7240   -0.9410 ca        1 MOL     -0.228833
    122 C42       -10.6570   -0.6480   -2.2040 ca        1 MOL     -0.005688
    123 C43       -11.0560    1.1440   -0.5690 ca        1 MOL     -0.005688
    124 C44       -11.4720   -0.0100   -1.2430 ca        1 MOL     -0.220193
    125 H51        -5.2940    2.3400   -2.5770 hn        1 MOL      0.332780
    126 H52        -6.9690    1.9780   -0.4420 h1        1 MOL      0.013100
    127 H53        -7.4000    1.4240   -3.3400 hc        1 MOL      0.052098
    128 H54        -7.6770    2.9160   -2.5330 hc        1 MOL      0.052098
    129 H55        -8.8320   -0.3660   -3.3800 ha        1 MOL      0.118187
    130 H56        -9.5650    2.6930   -0.5670 ha        1 MOL      0.118187
    131 H57       -10.9340   -1.5590   -2.7020 ha        1 MOL      0.094222
    132 H58       -11.7170    1.5200    0.2090 ha        1 MOL      0.094222
    133 H59       -12.3990   -0.4390   -0.9120 ha        1 MOL      0.120074
    134 N12        -6.3070   -1.1120   -1.4300 n         1 MOL     -0.138719
    135 C45        -6.4480   -2.4980   -0.9860 c3        1 MOL     -0.016564
    136 C46        -5.5920   -2.7600    0.3210 c         1 MOL      0.355050
    137 O20        -5.9410   -3.7170    1.0200 o         1 MOL     -0.498819
    138 C47        -5.9420   -3.3810   -2.0890 c3        1 MOL     -0.112670
    139 C48        -4.9430   -2.4900   -2.8290 c3        1 MOL      0.039059
    140 C49        -5.6510   -1.1400   -2.7090 c3        1 MOL     -0.022108
    141 H60        -7.4850   -2.7770   -0.7860 h1        1 MOL      0.079258
    142 H61        -5.5060   -4.3430   -1.8390 hc        1 MOL      0.053002
    143 H62        -6.8060   -3.5730   -2.7210 hc        1 MOL      0.053002
    144 H63        -4.0140   -2.3810   -2.2780 hc        1 MOL      0.022932
    145 H64        -4.7630   -2.7960   -3.8570 hc        1 MOL      0.022932
    146 H65        -4.9090   -0.3590   -2.8630 h1        1 MOL      0.002217
    147 H66        -6.3870   -0.9920   -3.4890 h1        1 MOL      0.002217
    148 N13        -4.6130   -1.8420    0.6080 n         1 MOL     -0.189983
    149 C50        -3.8290   -1.9510    1.7820 c3        1 MOL     -0.002922
    150 C51        -4.4590   -1.1340    2.8840 c         1 MOL      0.353460
    151 O21        -4.4220   -1.5350    4.0800 o         1 MOL     -0.558926
    152 C52        -2.4010   -1.3420    1.5200 c3        1 MOL     -0.038343
    153 C53        -1.6330   -2.1030    0.3730 c3        1 MOL     -0.167715
    154 C54        -0.2950   -1.4480    0.1110 c         1 MOL      0.768365
    155 O22         0.6050   -2.0590   -0.4560 o         1 MOL     -0.773715
    156 O23        -0.1500   -0.2380    0.4150 o         1 MOL     -0.773715
    157 H67        -4.4090   -1.0250    0.0580 hn        1 MOL      0.187033
    158 H68        -3.7760   -2.9770    2.1380 h1        1 MOL      0.107614
    159 H69        -1.8010   -1.3350    2.4340 hc        1 MOL      0.064351
    160 H70        -2.4980   -0.3120    1.1890 hc        1 MOL      0.064351
    161 H71        -2.2040   -1.9140   -0.5330 hc        1 MOL      0.052205
    162 H72        -1.5020   -3.1620    0.5590 hc        1 MOL      0.052205
    163 N14        -5.3150   -0.1310    2.5830 n         1 MOL      0.038887
    164 C55        -6.2940    0.5130    3.4900 c3        1 MOL     -0.260934
    165 H73        -5.7730    1.1960    4.1610 h1        1 MOL      0.093711
    166 H74        -7.0250    1.0680    2.9020 h1        1 MOL      0.093711
    167 H75        -6.8040   -0.2520    4.0760 h1        1 MOL      0.093711
    168 H76        -5.2790    0.2470    1.6460 hn        1 MOL     -0.031590
    169 Ca1         1.9510    0.0950   -1.1490 Ca        1 MOL      1.734446
@<TRIPOS>BOND
     1    1    2 1   
     2    1    4 1   
     3    1    5 1   
     4    1    6 1   
     5    2    3 2   
     6    2    7 1   
     7    7    8 1   
     8    7   15 1   
     9    8    9 1   
    10    8   11 1   
    11    8   16 1   
    12    9   10 2   
    13    9   19 1   
    14   11   12 1   
    15   11   17 1   
    16   11   18 1   
    17   12   13 1   
    18   12   14 1   
    19   19   20 1   
    20   19   24 1   
    21   20   21 1   
    22   20   23 1   
    23   20   25 1   
    24   21   22 2   
    25   21   29 1   
    26   23   26 1   
    27   23   27 1   
    28   23   28 1   
    29   29   30 1   
    30   29   37 1   
    31   30   31 1   
    32   30   33 1   
    33   30   38 1   
    34   31   32 2   
    35   31   41 1   
    36   33   34 1   
    37   33   39 1   
    38   33   40 1   
    39   34   35 1   
    40   34   36 1   
    41   41   42 1   
    42   41   45 1   
    43   42   43 1   
    44   42   46 1   
    45   42   47 1   
    46   43   44 2   
    47   43   48 1   
    48   48   49 1   
    49   48   56 1   
    50   49   50 1   
    51   49   52 1   
    52   49   57 1   
    53   50   51 2   
    54   50   62 1   
    55   52   53 1   
    56   52   58 1   
    57   52   59 1   
    58   53   54 1   
    59   53   55 2   
    60   54   60 1   
    61   54   61 1   
    62   62   63 1   
    63   62   66 1   
    64   63   64 1   
    65   63   67 1   
    66   63   68 1   
    67   64   65 2   
    68   64   69 1   
    69   69   70 1   
    70   69   76 1   
    71   70   71 1   
    72   70   73 1   
    73   70   77 1   
    74   71   72 2   
    75   71   83 1   
    76   73   74 1   
    77   73   75 1   
    78   73   78 1   
    79   74   80 1   
    80   74   81 1   
    81   74   82 1   
    82   75   79 1   
    83   83   84 1   
    84   83   91 1   
    85   84   85 1   
    86   84   87 1   
    87   84   92 1   
    88   85   86 2   
    89   85  102 1   
    90   87   88 1   
    91   87   89 1   
    92   87   93 1   
    93   88   90 1   
    94   88   94 1   
    95   88   95 1   
    96   89   96 1   
    97   89   97 1   
    98   89   98 1   
    99   90   99 1   
   100   90  100 1   
   101   90  101 1   
   102  102  103 1   
   103  102  110 1   
   104  103  104 1   
   105  103  106 1   
   106  103  111 1   
   107  104  105 2   
   108  104  114 1   
   109  106  107 1   
   110  106  112 1   
   111  106  113 1   
   112  107  108 1   
   113  107  109 1   
   114  114  115 1   
   115  114  125 1   
   116  115  116 1   
   117  115  118 1   
   118  115  126 1   
   119  116  117 2   
   120  116  134 1   
   121  118  119 1   
   122  118  127 1   
   123  118  128 1   
   124  119  120 ar  
   125  119  121 ar  
   126  120  122 ar  
   127  120  129 1   
   128  121  123 ar  
   129  121  130 1   
   130  122  124 ar  
   131  122  131 1   
   132  123  124 ar  
   133  123  132 1   
   134  124  133 1   
   135  134  135 1   
   136  134  140 1   
   137  135  136 1   
   138  135  138 1   
   139  135  141 1   
   140  136  137 2   
   141  136  148 1   
   142  138  139 1   
   143  138  142 1   
   144  138  143 1   
   145  139  140 1   
   146  139  144 1   
   147  139  145 1   
   148  140  146 1   
   149  140  147 1   
   150  148  149 1   
   151  148  157 1   
   152  149  150 1   
   153  149  152 1   
   154  149  158 1   
   155  150  151 2   
   156  150  163 1   
   157  152  153 1   
   158  152  159 1   
   159  152  160 1   
   160  153  154 1   
   161  153  161 1   
   162  153  162 1   
   163  154  155 1   
   164  154  156 1   
   165  163  164 1   
   166  163  168 1   
   167  164  165 1   
   168  164  166 1   
   169  164  167 1   
@<TRIPOS>SUBSTRUCTURE
     1 MOL         1 TEMP              0 ****  ****    0 ROOT
