@<TRIPOS>MOLECULE
MOL
  175   173     1     0     0
SMALL
resp


@<TRIPOS>ATOM
      1 C1         -1.1600    3.5970    5.9050 c3        1 MOL     -0.313578
      2 C2         -1.2270    3.2640    4.4920 c         1 MOL      0.759233
      3 O1         -0.2980    3.5900    3.6710 o         1 MOL     -0.615951
      4 H1         -1.0980    2.6810    6.4910 hc        1 MOL      0.075766
      5 H2         -0.2770    4.2090    6.0940 hc        1 MOL      0.075766
      6 H3         -2.0550    4.1510    6.1900 hc        1 MOL      0.075766
      7 N1         -2.3220    2.6250    4.0290 n         1 MOL     -0.673429
      8 C3         -2.6510    2.2960    2.6520 c3        1 MOL      0.435846
      9 C4         -3.0010    3.4900    1.7580 c         1 MOL      0.445711
     10 O2         -4.0080    4.1450    1.9910 o         1 MOL     -0.567403
     11 C5         -3.6810    1.1880    2.6390 c3        1 MOL     -0.440095
     12 C6         -4.1840    0.8120    1.1780 c         1 MOL      0.875271
     13 O3         -5.0320   -0.0810    0.9790 o         1 MOL     -0.668032
     14 O4         -3.6050    1.3440    0.1900 o         1 MOL     -0.668032
     15 H4         -3.0780    2.5170    4.6850 hn        1 MOL      0.315322
     16 H5         -1.8300    1.8540    2.0960 h1        1 MOL     -0.090386
     17 H6         -4.5680    1.5900    3.1230 hc        1 MOL      0.077864
     18 H7         -3.2830    0.2680    3.0540 hc        1 MOL      0.077864
     19 N2         -2.0210    3.8100    0.8580 n         1 MOL     -0.241562
     20 C7         -2.0390    5.0900    0.1510 c3        1 MOL      0.072474
     21 C8         -3.1820    5.1180   -0.9410 c         1 MOL      0.402518
     22 O5         -3.3340    6.0950   -1.6210 o         1 MOL     -0.546472
     23 C9         -0.6630    5.1890   -0.5020 c3        1 MOL     -0.230951
     24 H8         -1.2800    3.1490    0.6600 hn        1 MOL      0.209737
     25 H9         -2.2390    5.8790    0.8800 h1        1 MOL      0.057340
     26 H10         0.1070    5.1320    0.2730 hc        1 MOL      0.079398
     27 H11        -0.5180    4.3340   -1.1620 hc        1 MOL      0.079398
     28 H12        -0.4870    6.1480   -0.9760 hc        1 MOL      0.079398
     29 N3         -3.7760    3.9710   -1.2660 n         1 MOL     -0.119297
     30 C10        -4.8440    3.8150   -2.3470 c3        1 MOL      0.060384
     31 C11        -6.2370    3.1540   -1.9450 c         1 MOL      0.374521
     32 O6         -7.2840    3.4290   -2.5650 o         1 MOL     -0.523904
     33 C12        -4.2490    3.1390   -3.5570 c3        1 MOL     -0.162826
     34 C13        -3.5140    1.8720   -3.1370 c         1 MOL      0.667108
     35 O7         -4.1980    0.9380   -2.6730 o         1 MOL     -0.689030
     36 O8         -2.2990    1.8320   -3.3140 o         1 MOL     -0.689030
     37 H13        -3.5970    3.1240   -0.7350 hn        1 MOL     -0.032804
     38 H14        -5.1890    4.7700   -2.7410 h1        1 MOL      0.071773
     39 H15        -3.5380    3.8420   -3.9920 hc        1 MOL      0.043074
     40 H16        -5.0910    2.9550   -4.2240 hc        1 MOL      0.043074
     41 N4         -6.3000    2.3730   -0.8390 n         1 MOL     -0.134736
     42 C14        -7.5440    1.8810   -0.2640 c3        1 MOL     -0.262433
     43 C15        -7.8740    0.4540   -0.5840 c         1 MOL      0.600869
     44 O9         -8.9310   -0.0350   -0.3560 o         1 MOL     -0.595274
     45 H17        -5.4630    2.0950   -0.3530 hn        1 MOL      0.181263
     46 H18        -8.4130    2.3800   -0.6890 h1        1 MOL      0.115284
     47 H19        -7.4890    1.8830    0.8280 h1        1 MOL      0.115284
     48 N5         -6.9020   -0.3240   -1.1780 n         1 MOL     -0.145689
     49 C16        -7.1510   -1.7350   -1.6370 c3        1 MOL     -0.215549
     50 C17        -7.1860   -2.7060   -0.3700 c         1 MOL      0.529731
     51 O10        -7.5840   -3.8260   -0.5510 o         1 MOL     -0.574086
     52 C18        -6.1360   -2.2270   -2.7290 c3        1 MOL     -0.067449
     53 C19        -4.8600   -2.7600   -2.1160 c         1 MOL      0.604567
     54 N6         -4.7200   -4.0550   -1.9780 n         1 MOL     -0.813062
     55 O11        -4.0780   -2.0480   -1.5990 o         1 MOL     -0.538935
     56 H20        -5.9860    0.0640   -1.3590 hn        1 MOL      0.081301
     57 H21        -8.1450   -1.7000   -2.0760 h1        1 MOL      0.134027
     58 H22        -5.8360   -1.5080   -3.4920 hc        1 MOL      0.049850
     59 H23        -6.4720   -3.0360   -3.3780 hc        1 MOL      0.049850
     60 H24        -5.3680   -4.7400   -2.3420 hn        1 MOL      0.369197
     61 H25        -3.8900   -4.3510   -1.4720 hn        1 MOL      0.369197
     62 N7         -6.6110   -2.2890    0.7520 n         1 MOL     -0.121904
     63 C20        -6.5050   -3.0960    1.9620 c3        1 MOL     -0.279101
     64 C21        -5.1470   -3.7490    2.2160 c         1 MOL      0.607465
     65 O12        -5.0520   -4.5080    3.1460 o         1 MOL     -0.593383
     66 H26        -6.0940   -1.4190    0.7440 hn        1 MOL      0.156304
     67 H27        -7.3060   -3.8160    1.7940 h1        1 MOL      0.120841
     68 H28        -6.6670   -2.4370    2.8210 h1        1 MOL      0.120841
     69 N8         -4.0560   -3.4990    1.4880 n         1 MOL     -0.079886
     70 C22        -2.6740   -3.9280    1.7130 c3        1 MOL     -0.167792
     71 C23        -1.7000   -2.7460    1.5050 c         1 MOL      0.581855
     72 O13        -1.9990   -1.7620    0.8520 o         1 MOL     -0.542393
     73 C24        -2.2400   -5.0910    0.8270 c3        1 MOL      0.430600
     74 C25        -3.1760   -6.2850    1.0060 c3        1 MOL     -0.412966
     75 O14        -2.2310   -4.7640   -0.5220 oh        1 MOL     -0.639990
     76 H29        -4.1220   -2.7630    0.7980 hn        1 MOL      0.027281
     77 H30        -2.5850   -4.2630    2.7440 h1        1 MOL      0.086716
     78 H31        -1.2280   -5.3940    1.1060 h1        1 MOL     -0.005190
     79 H32        -2.3260   -5.6260   -0.9260 ho        1 MOL      0.391733
     80 H33        -2.8670   -7.0910    0.3390 hc        1 MOL      0.103061
     81 H34        -3.0740   -6.5830    2.0470 hc        1 MOL      0.103061
     82 H35        -4.2050   -5.9660    0.8370 hc        1 MOL      0.103061
     83 N9         -0.5590   -2.8100    2.0570 n         1 MOL     -0.338143
     84 C26         0.5910   -1.9610    1.6710 c3        1 MOL     -0.012822
     85 C27         1.6390   -2.6250    0.7690 c         1 MOL      0.501344
     86 O15         1.9720   -3.8070    1.0720 o         1 MOL     -0.575046
     87 C28         1.2520   -1.3740    2.9760 c3        1 MOL      0.310969
     88 C29         1.8640   -2.3820    3.9650 c3        1 MOL     -0.171413
     89 C30         0.2540   -0.4190    3.6800 c3        1 MOL     -0.270165
     90 C31         2.5560   -1.8360    5.1400 c3        1 MOL     -0.046989
     91 H36        -0.4190   -3.6440    2.6070 hn        1 MOL      0.222030
     92 H37         0.2790   -1.0380    1.1780 h1        1 MOL     -0.065756
     93 H38         2.0690   -0.7600    2.5930 hc        1 MOL     -0.142352
     94 H39         2.5610   -3.0040    3.3960 hc        1 MOL      0.039874
     95 H40         1.0750   -3.0370    4.3480 hc        1 MOL      0.039874
     96 H41         0.7670    0.4050    4.1820 hc        1 MOL      0.066888
     97 H42        -0.4260   -0.0020    2.9280 hc        1 MOL      0.066888
     98 H43        -0.2250   -1.0770    4.3990 hc        1 MOL      0.066888
     99 H44         3.0230   -2.5710    5.7970 hc        1 MOL      0.013584
    100 H45         3.2270   -1.0260    4.8450 hc        1 MOL      0.013584
    101 H46         1.9190   -1.2780    5.8390 hc        1 MOL      0.013584
    102 N10         2.1030   -1.9690   -0.3100 n         1 MOL     -0.270240
    103 C32         3.2630   -2.3010   -1.1790 c3        1 MOL      0.011862
    104 C33         4.5420   -1.8540   -0.4530 c         1 MOL      0.516430
    105 O16         4.4560   -1.3610    0.6970 o         1 MOL     -0.480568
    106 C34         3.1800   -1.6260   -2.5990 c3        1 MOL     -0.435053
    107 C35         4.1920   -2.0320   -3.7210 c         1 MOL      0.758479
    108 O17         4.8870   -3.0920   -3.6410 o         1 MOL     -0.700353
    109 O18         4.3850   -1.2650   -4.6950 o         1 MOL     -0.700353
    110 H47         1.6340   -1.0900   -0.5170 hn        1 MOL      0.287046
    111 H48         3.2820   -3.3950   -1.1620 h1        1 MOL      0.083983
    112 H49         3.1100   -0.5480   -2.4670 hc        1 MOL      0.123319
    113 H50         2.2190   -1.8660   -3.0580 hc        1 MOL      0.123319
    114 N11         5.7450   -1.9190   -1.0700 n         1 MOL     -0.480968
    115 C36         7.0130   -1.4240   -0.5650 c3        1 MOL      0.301359
    116 C37         6.9790    0.1380   -0.3410 c         1 MOL      0.330542
    117 O19         7.3140    0.6260    0.7570 o         1 MOL     -0.473103
    118 C38         8.0770   -1.9130   -1.4260 c3        1 MOL     -0.229657
    119 C39         9.4560   -1.4350   -0.9580 ca        1 MOL      0.180992
    120 C40         9.8530   -1.7820    0.3390 ca        1 MOL     -0.261994
    121 C41        10.3870   -0.7600   -1.8180 ca        1 MOL     -0.261994
    122 C42        11.0990   -1.3540    0.8040 ca        1 MOL     -0.008373
    123 C43        11.6070   -0.3120   -1.3530 ca        1 MOL     -0.008373
    124 C44        12.0040   -0.6910   -0.0270 ca        1 MOL     -0.220740
    125 H51         5.7960   -2.2860   -2.0110 hn        1 MOL      0.218150
    126 H52         7.1440   -1.9210    0.3970 h1        1 MOL      0.048107
    127 H53         7.9180   -1.4700   -2.4080 hc        1 MOL      0.092304
    128 H54         8.1520   -2.9950   -1.3580 hc        1 MOL      0.092304
    129 H55         9.1830   -2.3530    0.9650 ha        1 MOL      0.135295
    130 H56        10.1010   -0.6000   -2.8530 ha        1 MOL      0.135295
    131 H57        11.4810   -1.7660    1.7200 ha        1 MOL      0.083618
    132 H58        12.3270    0.1570   -1.9980 ha        1 MOL      0.083618
    133 H59        12.9830   -0.5210    0.3930 ha        1 MOL      0.113105
    134 N12         6.5660    0.9840   -1.3360 n         1 MOL     -0.054114
    135 C45         6.5560    2.4640   -1.1020 c3        1 MOL     -0.225148
    136 C46         5.5540    2.9940   -0.0290 c         1 MOL      0.513583
    137 O20         5.8350    4.0120    0.6090 o         1 MOL     -0.526287
    138 C47         6.3330    3.1330   -2.5050 c3        1 MOL     -0.023503
    139 C48         5.5810    2.0860   -3.3320 c3        1 MOL     -0.112851
    140 C49         6.2540    0.7660   -2.7730 c3        1 MOL     -0.001486
    141 H60         7.5110    2.7800   -0.6830 h1        1 MOL      0.120029
    142 H61         5.8250    4.0970   -2.4710 hc        1 MOL      0.038752
    143 H62         7.2550    3.3640   -3.0260 hc        1 MOL      0.038752
    144 H63         4.5320    2.1540   -3.0320 hc        1 MOL      0.066375
    145 H64         5.8110    2.2720   -4.3770 hc        1 MOL      0.066375
    146 H65         5.5000   -0.0020   -2.9500 h1        1 MOL      0.051660
    147 H66         7.1200    0.4250   -3.3580 h1        1 MOL      0.051660
    148 N13         4.5200    2.1690    0.2380 n         1 MOL     -0.312297
    149 C50         3.5510    2.2970    1.3400 c3        1 MOL     -0.115064
    150 C51         4.1430    1.7780    2.6600 c         1 MOL      0.525989
    151 O21         3.9310    2.5160    3.6990 o         1 MOL     -0.605720
    152 C52         2.3110    1.4860    0.9640 c3        1 MOL     -0.120430
    153 C53         1.7460    1.9860   -0.4550 c3        1 MOL      0.012593
    154 C54         0.4370    1.2510   -0.8130 c         1 MOL      0.559990
    155 O22        -0.5560    1.2310   -0.0220 o         1 MOL     -0.646135
    156 O23         0.4860    0.4720   -1.7640 o         1 MOL     -0.646135
    157 H67         4.3580    1.4070   -0.3970 hn        1 MOL      0.261531
    158 H68         3.2570    3.3130    1.5780 h1        1 MOL      0.122233
    159 H69         1.5070    1.5510    1.6990 hc        1 MOL      0.140960
    160 H70         2.5790    0.4350    0.8760 hc        1 MOL      0.140960
    161 H71         2.3500    1.7270   -1.3250 hc        1 MOL     -0.010507
    162 H72         1.5860    3.0660   -0.5450 hc        1 MOL     -0.010507
    163 N14         4.9500    0.7330    2.7030 n         1 MOL      0.080803
    164 C55         5.7750    0.3910    3.8080 c3        1 MOL     -0.140730
    165 H73         5.1490    0.0740    4.6430 h1        1 MOL      0.050701
    166 H74         6.4410   -0.4240    3.5250 h1        1 MOL      0.050701
    167 H75         6.3640    1.2580    4.1050 h1        1 MOL      0.050701
    168 H76         5.2310    0.3930    1.7970 hn        1 MOL     -0.018582
    169 Ca1        -2.2430   -0.1370   -1.3980 Ca        1 MOL      1.732806
    170 O24        -0.8850   -2.3880   -1.8790 oh        1 MOL     -0.815277
    171 H77        -0.3740   -2.4800   -2.6800 ho        1 MOL      0.394368
    172 H78        -1.2940   -3.2430   -1.7490 ho        1 MOL      0.394368
    173 O25        -2.1880   -0.9550   -4.0000 oh        1 MOL     -0.815277
    174 H79        -2.9150   -1.3800   -4.4550 ho        1 MOL      0.394368
    175 H80        -1.8380   -0.3290   -4.6220 ho        1 MOL      0.394368
@<TRIPOS>BOND
     1    1    2 1   
     2    1    4 1   
     3    1    5 1   
     4    1    6 1   
     5    2    3 2   
     6    2    7 1   
     7    7    8 1   
     8    7   15 1   
     9    8    9 1   
    10    8   11 1   
    11    8   16 1   
    12    9   10 2   
    13    9   19 1   
    14   11   12 1   
    15   11   17 1   
    16   11   18 1   
    17   12   13 1   
    18   12   14 1   
    19   19   20 1   
    20   19   24 1   
    21   20   21 1   
    22   20   23 1   
    23   20   25 1   
    24   21   22 2   
    25   21   29 1   
    26   23   26 1   
    27   23   27 1   
    28   23   28 1   
    29   29   30 1   
    30   29   37 1   
    31   30   31 1   
    32   30   33 1   
    33   30   38 1   
    34   31   32 2   
    35   31   41 1   
    36   33   34 1   
    37   33   39 1   
    38   33   40 1   
    39   34   35 1   
    40   34   36 1   
    41   41   42 1   
    42   41   45 1   
    43   42   43 1   
    44   42   46 1   
    45   42   47 1   
    46   43   44 2   
    47   43   48 1   
    48   48   49 1   
    49   48   56 1   
    50   49   50 1   
    51   49   52 1   
    52   49   57 1   
    53   50   51 2   
    54   50   62 1   
    55   52   53 1   
    56   52   58 1   
    57   52   59 1   
    58   53   54 1   
    59   53   55 2   
    60   54   60 1   
    61   54   61 1   
    62   62   63 1   
    63   62   66 1   
    64   63   64 1   
    65   63   67 1   
    66   63   68 1   
    67   64   65 2   
    68   64   69 1   
    69   69   70 1   
    70   69   76 1   
    71   70   71 1   
    72   70   73 1   
    73   70   77 1   
    74   71   72 2   
    75   71   83 1   
    76   73   74 1   
    77   73   75 1   
    78   73   78 1   
    79   74   80 1   
    80   74   81 1   
    81   74   82 1   
    82   75   79 1   
    83   83   84 1   
    84   83   91 1   
    85   84   85 1   
    86   84   87 1   
    87   84   92 1   
    88   85   86 2   
    89   85  102 1   
    90   87   88 1   
    91   87   89 1   
    92   87   93 1   
    93   88   90 1   
    94   88   94 1   
    95   88   95 1   
    96   89   96 1   
    97   89   97 1   
    98   89   98 1   
    99   90   99 1   
   100   90  100 1   
   101   90  101 1   
   102  102  103 1   
   103  102  110 1   
   104  103  104 1   
   105  103  106 1   
   106  103  111 1   
   107  104  105 2   
   108  104  114 1   
   109  106  107 1   
   110  106  112 1   
   111  106  113 1   
   112  107  108 1   
   113  107  109 1   
   114  114  115 1   
   115  114  125 1   
   116  115  116 1   
   117  115  118 1   
   118  115  126 1   
   119  116  117 2   
   120  116  134 1   
   121  118  119 1   
   122  118  127 1   
   123  118  128 1   
   124  119  120 ar  
   125  119  121 ar  
   126  120  122 ar  
   127  120  129 1   
   128  121  123 ar  
   129  121  130 1   
   130  122  124 ar  
   131  122  131 1   
   132  123  124 ar  
   133  123  132 1   
   134  124  133 1   
   135  134  135 1   
   136  134  140 1   
   137  135  136 1   
   138  135  138 1   
   139  135  141 1   
   140  136  137 2   
   141  136  148 1   
   142  138  139 1   
   143  138  142 1   
   144  138  143 1   
   145  139  140 1   
   146  139  144 1   
   147  139  145 1   
   148  140  146 1   
   149  140  147 1   
   150  148  149 1   
   151  148  157 1   
   152  149  150 1   
   153  149  152 1   
   154  149  158 1   
   155  150  151 2   
   156  150  163 1   
   157  152  153 1   
   158  152  159 1   
   159  152  160 1   
   160  153  154 1   
   161  153  161 1   
   162  153  162 1   
   163  154  155 1   
   164  154  156 1   
   165  163  164 1   
   166  163  168 1   
   167  164  165 1   
   168  164  166 1   
   169  164  167 1   
   170  170  171 1   
   171  170  172 1   
   172  173  174 1   
   173  173  175 1   
@<TRIPOS>SUBSTRUCTURE
     1 MOL         1 TEMP              0 ****  ****    0 ROOT
