@<TRIPOS>MOLECULE
MOL
  189   185     1     0     0
SMALL
resp


@<TRIPOS>ATOM
      1 C1          0.1730    3.6020    5.7450 c3        1 MOL     -0.459065
      2 C2         -0.5840    3.3340    4.4880 c         1 MOL      0.764329
      3 O1         -0.8750    2.1590    4.2460 o         1 MOL     -0.592139
      4 H1          0.8210    2.7540    5.9660 hc        1 MOL      0.115835
      5 H2          0.7780    4.4990    5.6210 hc        1 MOL      0.115835
      6 H3         -0.5280    3.7450    6.5680 hc        1 MOL      0.115835
      7 N1         -1.0500    4.3430    3.8250 n         1 MOL     -0.579444
      8 C3         -1.7150    4.0000    2.4980 c3        1 MOL      0.189191
      9 C4         -1.6850    5.1570    1.5090 c         1 MOL      0.535358
     10 O2         -1.6670    6.3460    1.9050 o         1 MOL     -0.599105
     11 C5         -3.1940    3.5850    2.7730 c3        1 MOL     -0.310310
     12 C6         -3.9570    2.9400    1.6170 c         1 MOL      0.717531
     13 O3         -5.1910    3.0140    1.6360 o         1 MOL     -0.659312
     14 O4         -3.2780    2.4350    0.6630 o         1 MOL     -0.659312
     15 H4         -0.6660    5.2750    3.9400 hn        1 MOL      0.319087
     16 H5         -1.1700    3.2330    1.9520 h1        1 MOL     -0.010740
     17 H6         -3.7490    4.4760    3.0320 hc        1 MOL      0.078633
     18 H7         -3.3020    2.9760    3.6640 hc        1 MOL      0.078633
     19 N2         -1.4660    4.8130    0.2560 n         1 MOL     -0.139903
     20 C7         -1.3460    5.7610   -0.8840 c3        1 MOL     -0.411284
     21 C8         -2.2200    5.3570   -2.1030 c         1 MOL      0.533616
     22 O5         -2.2750    6.0290   -3.1660 o         1 MOL     -0.576963
     23 C9          0.1200    6.0270   -1.2520 c3        1 MOL      0.308222
     24 C10         0.7930    4.8690   -1.9760 c3        1 MOL      0.137896
     25 C11         1.0260    6.6110   -0.1710 c3        1 MOL     -0.252712
     26 C12         2.1270    5.0980   -2.7410 c3        1 MOL     -0.403464
     27 H8         -1.3620    3.8300    0.0630 hn        1 MOL      0.153383
     28 H9         -1.7800    6.7110   -0.5800 h1        1 MOL      0.167178
     29 H10         0.1740    6.8090   -2.0130 hc        1 MOL     -0.051944
     30 H11         0.0680    4.3320   -2.5950 hc        1 MOL      0.025454
     31 H12         0.9730    4.1530   -1.1760 hc        1 MOL      0.025454
     32 H13         1.9320    6.9630   -0.6670 hc        1 MOL      0.048359
     33 H14         0.5990    7.4290    0.3970 hc        1 MOL      0.048359
     34 H15         1.2130    5.7370    0.4590 hc        1 MOL      0.048359
     35 H16         2.2410    4.0910   -3.1450 hc        1 MOL      0.093172
     36 H17         1.9810    5.8790   -3.4850 hc        1 MOL      0.093172
     37 H18         2.8990    5.4220   -2.0500 hc        1 MOL      0.093172
     38 N3         -2.9170    4.2260   -2.0190 n         1 MOL     -0.374550
     39 C13        -3.6700    3.6750   -3.1400 c3        1 MOL      0.016667
     40 C14        -5.0530    3.0620   -2.7340 c         1 MOL      0.350055
     41 O6         -5.8470    2.7380   -3.6580 o         1 MOL     -0.537273
     42 C15        -2.7980    2.7040   -3.9860 c3        1 MOL     -0.261885
     43 C16        -2.2590    1.4890   -3.2820 c         1 MOL      0.875950
     44 O7         -2.6610    1.3660   -2.1210 o         1 MOL     -0.757164
     45 O8         -1.4390    0.7170   -3.8500 o         1 MOL     -0.757164
     46 H19        -2.8830    3.5910   -1.2420 hn        1 MOL      0.320457
     47 H20        -3.8690    4.5200   -3.8110 h1        1 MOL      0.103817
     48 H21        -1.9700    3.2450   -4.4460 hc        1 MOL      0.062525
     49 H22        -3.3870    2.2610   -4.7830 hc        1 MOL      0.062525
     50 N4         -5.3840    2.8920   -1.4550 n         1 MOL     -0.019404
     51 C17        -6.7950    2.7760   -1.0240 c3        1 MOL     -0.285164
     52 C18        -7.4100    1.4110   -1.3270 c         1 MOL      0.573281
     53 O9         -8.6590    1.2980   -1.3490 o         1 MOL     -0.613442
     54 H23        -4.6240    2.9330   -0.7880 hn        1 MOL      0.036751
     55 H24        -7.3800    3.3850   -1.7200 h1        1 MOL      0.127466
     56 H25        -7.0190    3.0650    0.0050 h1        1 MOL      0.127466
     57 N5         -6.5970    0.3060   -1.4000 n         1 MOL     -0.313938
     58 C19        -7.0760   -1.0360   -1.7470 c3        1 MOL      0.020795
     59 C20        -7.1530   -2.0400   -0.6080 c         1 MOL      0.337985
     60 O10        -7.1910   -3.2740   -0.8460 o         1 MOL     -0.460867
     61 C21        -6.1420   -1.6760   -2.7780 c3        1 MOL     -0.156821
     62 C22        -4.6880   -1.7580   -2.4240 c         1 MOL      0.723978
     63 O11        -4.3160   -1.2950   -1.3070 o         1 MOL     -0.691866
     64 O12        -3.8880   -2.3580   -3.1950 o         1 MOL     -0.691866
     65 H26        -5.5990    0.4850   -1.3600 hn        1 MOL      0.241566
     66 H27        -8.0800   -0.9710   -2.1440 h1        1 MOL      0.107805
     67 H28        -6.2160   -1.0180   -3.6510 hc        1 MOL      0.040700
     68 H29        -6.6010   -2.5890   -3.1450 hc        1 MOL      0.040700
     69 N6         -7.2280   -1.6370    0.6360 n         1 MOL     -0.233971
     70 C23        -7.3570   -2.5640    1.7570 c3        1 MOL     -0.200090
     71 C24        -6.2720   -3.6180    1.9780 c         1 MOL      0.484629
     72 O13        -6.4090   -4.5780    2.7190 o         1 MOL     -0.570513
     73 H30        -7.1910   -0.6450    0.7990 hn        1 MOL      0.242614
     74 H31        -8.3150   -3.0860    1.8350 h1        1 MOL      0.100291
     75 H32        -7.2180   -1.9030    2.6170 h1        1 MOL      0.100291
     76 N7         -5.1350   -3.4830    1.2980 n         1 MOL     -0.199724
     77 C25        -3.8770   -4.2280    1.4170 c3        1 MOL      0.209613
     78 C26        -2.6600   -3.3730    1.5460 c         1 MOL      0.089304
     79 O14        -2.5130   -2.4260    0.8480 o         1 MOL     -0.160553
     80 C27        -3.7700   -5.2230    0.2730 c3        1 MOL     -0.106875
     81 C28        -3.8860   -4.6750   -1.1090 c3        1 MOL     -0.073261
     82 C29        -4.0090   -5.6740   -2.1980 c         1 MOL      0.656704
     83 N8         -4.1160   -5.2350   -3.4430 n         1 MOL     -0.795199
     84 O15        -3.9960   -6.8760   -2.0300 o         1 MOL     -0.634264
     85 H33        -5.1150   -2.7480    0.6050 hn        1 MOL      0.170910
     86 H34        -3.8750   -4.8160    2.3330 h1        1 MOL     -0.021154
     87 H35        -4.5480   -5.9520    0.4990 hc        1 MOL      0.036757
     88 H36        -2.8100   -5.7220    0.3780 hc        1 MOL      0.036757
     89 H37        -2.9670   -4.1350   -1.3340 hc        1 MOL      0.059441
     90 H38        -4.7140   -3.9780   -1.2070 hc        1 MOL      0.059441
     91 H39        -4.1300   -4.2200   -3.4920 hn        1 MOL      0.352357
     92 H40        -4.0960   -5.8500   -4.2390 hn        1 MOL      0.352357
     93 N9         -1.6900   -3.9140    2.2230 n         1 MOL     -0.228955
     94 C30        -0.3700   -3.3070    2.3040 c3        1 MOL     -0.256497
     95 C31         0.6690   -3.6600    1.1730 c         1 MOL      0.654008
     96 O16         1.0840   -4.7870    1.0520 o         1 MOL     -0.599772
     97 C32         0.3370   -3.5250    3.7140 c3        1 MOL      0.303907
     98 C33         1.0580   -2.1760    3.9430 c3        1 MOL     -0.358848
     99 C34        -0.6390   -3.7590    4.9060 c3        1 MOL     -0.358848
    100 H41        -1.6830   -4.8870    2.4700 hn        1 MOL      0.283221
    101 H42        -0.5230   -2.2420    2.1210 h1        1 MOL      0.228374
    102 H43         1.0400   -4.3560    3.7630 hc        1 MOL     -0.003043
    103 H44         0.3530   -1.3460    3.9070 hc        1 MOL      0.074582
    104 H45         1.6190   -2.1910    4.8850 hc        1 MOL      0.074582
    105 H46         1.8430   -1.9390    3.2220 hc        1 MOL      0.074582
    106 H47        -1.2960   -2.8910    4.9830 hc        1 MOL      0.074582
    107 H48        -1.0870   -4.7480    4.8620 hc        1 MOL      0.074582
    108 H49         0.0050   -3.7140    5.7890 hc        1 MOL      0.074582
    109 N10         1.1940   -2.6550    0.4030 n         1 MOL     -0.247585
    110 C35         2.3390   -2.6090   -0.5260 c3        1 MOL      0.124046
    111 C36         3.6810   -2.6750    0.1610 c         1 MOL      0.487757
    112 O17         3.7250   -2.4300    1.3710 o         1 MOL     -0.443849
    113 C37         2.2500   -1.4800   -1.4830 c3        1 MOL     -0.287522
    114 C38         3.2860   -1.4560   -2.5590 c         1 MOL      0.671937
    115 N11         3.3030   -2.4100   -3.4290 n         1 MOL     -0.726025
    116 O18         4.1840   -0.5850   -2.6210 o         1 MOL     -0.552980
    117 H50         0.8250   -1.7250    0.5540 hn        1 MOL     -0.164018
    118 H51         2.3920   -3.5160   -1.1340 h1        1 MOL      0.015303
    119 H52         2.2580   -0.5350   -0.9350 hc        1 MOL      0.177963
    120 H53         1.2340   -1.5450   -1.8640 hc        1 MOL      0.177963
    121 H54         2.6760   -3.1970   -3.3850 hn        1 MOL      0.345557
    122 H55         4.0960   -2.4510   -4.0560 hn        1 MOL      0.345557
    123 N12         4.8210   -3.0540   -0.4930 n         1 MOL     -0.543680
    124 C39         6.0950   -3.0110    0.1710 c3        1 MOL      0.516236
    125 C40         6.4620   -1.6190    0.8110 c         1 MOL      0.159483
    126 O19         6.8360   -1.4670    1.9740 o         1 MOL     -0.561365
    127 C41         7.2770   -3.6240   -0.5510 c3        1 MOL     -0.341182
    128 C42         7.6450   -2.9130   -1.9060 ca        1 MOL      0.250051
    129 C43         7.3890   -3.6160   -3.0960 ca        1 MOL     -0.326260
    130 C44         8.3880   -1.6930   -1.9430 ca        1 MOL     -0.326260
    131 C45         7.6800   -2.9600   -4.2660 ca        1 MOL     -0.130822
    132 C46         8.7440   -1.0860   -3.1760 ca        1 MOL     -0.130822
    133 C47         8.3490   -1.7450   -4.3860 ca        1 MOL      0.256450
    134 O20         8.5500   -1.1800   -5.6020 oh        1 MOL     -0.564185
    135 H56         4.8410   -3.2000   -1.4870 hn        1 MOL      0.222346
    136 H57         6.0180   -3.6500    1.0480 h1        1 MOL     -0.033430
    137 H58         7.1030   -4.6870   -0.7060 hc        1 MOL      0.082011
    138 H59         8.1780   -3.5640    0.0650 hc        1 MOL      0.082011
    139 H60         7.0310   -4.6300   -2.9450 ha        1 MOL      0.154429
    140 H61         8.7770   -1.2150   -1.0590 ha        1 MOL      0.154429
    141 H62         7.3540   -3.4330   -5.1840 ha        1 MOL      0.104142
    142 H63         9.3420   -0.2000   -3.2400 ha        1 MOL      0.104142
    143 H64         9.0020   -0.3370   -5.5180 ho        1 MOL      0.435943
    144 N13         6.2320   -0.5700   -0.0390 n         1 MOL      0.315913
    145 C48         6.5850    0.8360    0.3500 c3        1 MOL      0.033339
    146 C49         5.6110    1.4860    1.3770 c         1 MOL      0.344464
    147 O21         5.7720    2.6710    1.7120 o         1 MOL     -0.486655
    148 C50         6.6080    1.5950   -1.0440 c3        1 MOL      0.309835
    149 C51         7.2630    2.9800   -0.8270 c3        1 MOL     -0.097243
    150 C52         8.8000    2.9040   -0.6050 c         1 MOL      0.567086
    151 O22         9.4030    1.8860   -1.0320 o         1 MOL     -0.690418
    152 O23         9.3000    3.6850    0.2110 o         1 MOL     -0.690418
    153 H65         5.7840   -0.7550   -0.9210 hn        1 MOL     -0.016649
    154 H66         7.6130    0.7060    0.6990 h1        1 MOL      0.085984
    155 H67         5.5830    1.7030   -1.4030 hc        1 MOL     -0.100634
    156 H68         7.2820    1.0800   -1.7200 hc        1 MOL     -0.100634
    157 H69         6.7610    3.6330   -0.1180 hc        1 MOL     -0.025086
    158 H70         7.1920    3.4660   -1.8080 hc        1 MOL     -0.025086
    159 N14         4.5740    0.7790    1.7730 n         1 MOL     -0.102713
    160 C53         3.6390    1.0670    2.8090 c3        1 MOL      0.087235
    161 C54         3.9850    0.2730    4.0960 c         1 MOL      0.325306
    162 O24         3.9920    0.7950    5.2370 o         1 MOL     -0.563331
    163 C55         2.2300    0.6340    2.3430 c3        1 MOL      0.134641
    164 C56         1.8320    1.5730    1.1400 c3        1 MOL     -0.226841
    165 C57         0.4830    1.0940    0.5100 c         1 MOL      0.813766
    166 O25        -0.2350    1.8630   -0.2030 o         1 MOL     -0.714227
    167 O26         0.0820   -0.1140    0.6090 o         1 MOL     -0.714227
    168 H71         4.4750   -0.1370    1.3670 hn        1 MOL     -0.180704
    169 H72         3.6270    2.1120    3.1240 h1        1 MOL      0.039493
    170 H73         1.4890    0.6470    3.1310 hc        1 MOL      0.028622
    171 H74         2.2170   -0.3520    1.8750 hc        1 MOL      0.028622
    172 H75         2.6500    1.4780    0.4300 hc        1 MOL      0.033711
    173 H76         1.7490    2.5890    1.5420 hc        1 MOL      0.033711
    174 N15         4.3540   -0.9930    3.9510 n         1 MOL      0.020040
    175 C58         4.7390   -1.8470    5.0990 c3        1 MOL     -0.175490
    176 H77         5.5760   -2.4840    4.8120 h1        1 MOL      0.065136
    177 H78         5.0340   -1.2170    5.9380 h1        1 MOL      0.065136
    178 H79         3.8920   -2.4680    5.3900 h1        1 MOL      0.065136
    179 H80         4.3590   -1.4390    3.0520 hn        1 MOL      0.175842
    180 Ca1        -2.4140    0.0740    0.0960 Ca        1 MOL      1.745058
    181 O27        -2.0200    0.4740    2.7530 oh        1 MOL     -0.975082
    182 O28        -1.5040   -1.4920   -2.0170 oh        1 MOL     -0.975082
    183 H81        -2.4680   -0.0010    3.4520 ho        1 MOL      0.435567
    184 H82        -2.2900   -1.9350   -2.3150 ho        1 MOL      0.435567
    185 H83        -1.7370    1.2910    3.1640 ho        1 MOL      0.435567
    186 H84        -1.2230   -0.9720   -2.7670 ho        1 MOL      0.435567
    187 O29        -4.5000   -0.5000    1.8300 oh        1 MOL     -0.975082
    188 H85        -4.2180   -0.6080    2.7380 ho        1 MOL      0.435567
    189 H86        -5.4060   -0.2000    1.9010 ho        1 MOL      0.435567
@<TRIPOS>BOND
     1    1    2 1   
     2    1    4 1   
     3    1    5 1   
     4    1    6 1   
     5    2    3 2   
     6    2    7 1   
     7    7    8 1   
     8    7   15 1   
     9    8    9 1   
    10    8   11 1   
    11    8   16 1   
    12    9   10 2   
    13    9   19 1   
    14   11   12 1   
    15   11   17 1   
    16   11   18 1   
    17   12   13 1   
    18   12   14 1   
    19   19   20 1   
    20   19   27 1   
    21   20   21 1   
    22   20   23 1   
    23   20   28 1   
    24   21   22 2   
    25   21   38 1   
    26   23   24 1   
    27   23   25 1   
    28   23   29 1   
    29   24   26 1   
    30   24   30 1   
    31   24   31 1   
    32   25   32 1   
    33   25   33 1   
    34   25   34 1   
    35   26   35 1   
    36   26   36 1   
    37   26   37 1   
    38   38   39 1   
    39   38   46 1   
    40   39   40 1   
    41   39   42 1   
    42   39   47 1   
    43   40   41 2   
    44   40   50 1   
    45   42   43 1   
    46   42   48 1   
    47   42   49 1   
    48   43   44 1   
    49   43   45 1   
    50   50   51 1   
    51   50   54 1   
    52   51   52 1   
    53   51   55 1   
    54   51   56 1   
    55   52   53 2   
    56   52   57 1   
    57   57   58 1   
    58   57   65 1   
    59   58   59 1   
    60   58   61 1   
    61   58   66 1   
    62   59   60 2   
    63   59   69 1   
    64   61   62 1   
    65   61   67 1   
    66   61   68 1   
    67   62   63 1   
    68   62   64 1   
    69   69   70 1   
    70   69   73 1   
    71   70   71 1   
    72   70   74 1   
    73   70   75 1   
    74   71   72 2   
    75   71   76 1   
    76   76   77 1   
    77   76   85 1   
    78   77   78 1   
    79   77   80 1   
    80   77   86 1   
    81   78   79 2   
    82   78   93 1   
    83   80   81 1   
    84   80   87 1   
    85   80   88 1   
    86   81   82 1   
    87   81   89 1   
    88   81   90 1   
    89   82   83 1   
    90   82   84 2   
    91   83   91 1   
    92   83   92 1   
    93   93   94 1   
    94   93  100 1   
    95   94   95 1   
    96   94   97 1   
    97   94  101 1   
    98   95   96 2   
    99   95  109 1   
   100   97   98 1   
   101   97   99 1   
   102   97  102 1   
   103   98  103 1   
   104   98  104 1   
   105   98  105 1   
   106   99  106 1   
   107   99  107 1   
   108   99  108 1   
   109  109  110 1   
   110  109  117 1   
   111  110  111 1   
   112  110  113 1   
   113  110  118 1   
   114  111  112 2   
   115  111  123 1   
   116  113  114 1   
   117  113  119 1   
   118  113  120 1   
   119  114  115 1   
   120  114  116 2   
   121  115  121 1   
   122  115  122 1   
   123  123  124 1   
   124  123  135 1   
   125  124  125 1   
   126  124  127 1   
   127  124  136 1   
   128  125  126 2   
   129  125  144 1   
   130  127  128 1   
   131  127  137 1   
   132  127  138 1   
   133  128  129 ar  
   134  128  130 ar  
   135  129  131 ar  
   136  129  139 1   
   137  130  132 ar  
   138  130  140 1   
   139  131  133 ar  
   140  131  141 1   
   141  132  133 ar  
   142  132  142 1   
   143  133  134 1   
   144  134  143 1   
   145  144  145 1   
   146  144  153 1   
   147  145  146 1   
   148  145  148 1   
   149  145  154 1   
   150  146  147 2   
   151  146  159 1   
   152  148  149 1   
   153  148  155 1   
   154  148  156 1   
   155  149  150 1   
   156  149  157 1   
   157  149  158 1   
   158  150  151 1   
   159  150  152 1   
   160  159  160 1   
   161  159  168 1   
   162  160  161 1   
   163  160  163 1   
   164  160  169 1   
   165  161  162 2   
   166  161  174 1   
   167  163  164 1   
   168  163  170 1   
   169  163  171 1   
   170  164  165 1   
   171  164  172 1   
   172  164  173 1   
   173  165  166 1   
   174  165  167 1   
   175  174  175 1   
   176  174  179 1   
   177  175  176 1   
   178  175  177 1   
   179  175  178 1   
   180  181  183 1   
   181  181  185 1   
   182  182  184 1   
   183  182  186 1   
   184  187  188 1   
   185  187  189 1   
@<TRIPOS>SUBSTRUCTURE
     1 MOL         1 TEMP              0 ****  ****    0 ROOT
