@<TRIPOS>MOLECULE
MOL
  189   185     1     0     0
SMALL
resp


@<TRIPOS>ATOM
      1 C1         -1.0350    1.3430    6.7160 c3        1 MOL     -0.360984
      2 C2         -1.1380    1.2820    5.1650 c         1 MOL      0.775076
      3 O1         -0.3100    1.7940    4.5060 o         1 MOL     -0.644260
      4 H1          0.0080    1.2350    7.0150 hc        1 MOL      0.088485
      5 H2         -1.4160    2.3010    7.0700 hc        1 MOL      0.088485
      6 H3         -1.6220    0.5340    7.1520 hc        1 MOL      0.088485
      7 N1         -2.2210    0.8360    4.5820 n         1 MOL     -0.597619
      8 C3         -2.4260    0.9770    3.1460 c3        1 MOL      0.059715
      9 C4         -2.7630    2.4180    2.8230 c         1 MOL      0.552776
     10 O2         -3.7450    2.8850    3.3880 o         1 MOL     -0.544564
     11 C5         -3.5160   -0.1040    2.7610 c3        1 MOL     -0.045132
     12 C6         -4.0260    0.1010    1.4060 c         1 MOL      0.680546
     13 O3         -3.2190    0.2940    0.4610 o         1 MOL     -0.664687
     14 O4         -5.2520    0.1820    1.2910 o         1 MOL     -0.664687
     15 H4         -2.8030    0.2660    5.1820 hn        1 MOL      0.313965
     16 H5         -1.5490    0.6500    2.5770 h1        1 MOL     -0.006346
     17 H6         -4.3920    0.0040    3.3950 hc        1 MOL      0.008144
     18 H7         -3.1530   -1.1140    2.9580 hc        1 MOL      0.008144
     19 N2         -2.0060    3.1140    1.8970 n         1 MOL     -0.284351
     20 C7         -2.2310    4.5640    1.5700 c3        1 MOL     -0.045283
     21 C8         -3.1200    4.7980    0.3650 c         1 MOL      0.440708
     22 O5         -3.5590    5.9630    0.2020 o         1 MOL     -0.587965
     23 C9         -0.9060    5.2000    1.2340 c3        1 MOL      0.127291
     24 C10        -0.0330    5.2850    2.4850 c3        1 MOL     -0.343741
     25 C11         1.4760    5.4550    2.1210 c3        1 MOL      0.035925
     26 C12         1.5780    6.8900    1.5960 c3        1 MOL      0.159107
     27 N3          2.9740    7.1070    1.0730 n4        1 MOL     -0.473554
     28 H8         -1.3100    2.5720    1.4040 hn        1 MOL      0.371967
     29 H9         -2.6250    5.0490    2.4610 h1        1 MOL      0.094688
     30 H10        -1.0570    6.1610    0.7400 hc        1 MOL     -0.014425
     31 H11        -0.3790    4.5660    0.5100 hc        1 MOL     -0.014425
     32 H12        -0.1190    4.3770    3.0820 hc        1 MOL      0.112115
     33 H13        -0.3440    6.1560    3.0630 hc        1 MOL      0.112115
     34 H14         1.9110    4.6630    1.5070 hc        1 MOL      0.021266
     35 H15         2.1330    5.4380    2.9850 hc        1 MOL      0.021266
     36 H16         1.3650    7.4880    2.4740 hx        1 MOL      0.053446
     37 H17         0.9230    7.1720    0.7680 hx        1 MOL      0.053446
     38 H18         2.9380    8.0440    0.6930 hn        1 MOL      0.348171
     39 H19         3.6820    7.0980    1.7910 hn        1 MOL      0.348171
     40 H20         3.1720    6.3950    0.3850 hn        1 MOL      0.348171
     41 N4         -3.4600    3.8130   -0.4900 n         1 MOL     -0.276743
     42 C13        -4.0900    4.0790   -1.8180 c3        1 MOL      0.113810
     43 C14        -5.3640    3.1660   -1.9020 c         1 MOL      0.484214
     44 O6         -5.7910    2.7910   -2.9450 o         1 MOL     -0.544287
     45 C15        -3.0400    4.0630   -2.9250 c3        1 MOL     -0.149046
     46 C16        -1.9080    3.0510   -2.8520 c         1 MOL      0.895420
     47 O7         -0.9270    3.1550   -3.6100 o         1 MOL     -0.804699
     48 O8         -2.0140    2.1280   -2.0700 o         1 MOL     -0.804699
     49 H21        -2.9830    2.9360   -0.3250 hn        1 MOL      0.089161
     50 H22        -4.5750    5.0500   -1.8950 h1        1 MOL      0.059898
     51 H23        -2.6170    5.0580   -2.9820 hc        1 MOL      0.024855
     52 H24        -3.5230    3.9130   -3.8920 hc        1 MOL      0.024855
     53 N5         -5.9060    2.7300   -0.8160 n         1 MOL     -0.347308
     54 C17        -7.3010    2.1670   -0.7300 c3        1 MOL     -0.258541
     55 C18        -7.4720    0.7290   -1.2590 c         1 MOL      0.594731
     56 O9         -8.5490    0.2680   -1.3660 o         1 MOL     -0.590668
     57 H25        -5.4750    3.0240    0.0530 hn        1 MOL      0.271611
     58 H26        -8.0530    2.7930   -1.1940 h1        1 MOL      0.135156
     59 H27        -7.5300    2.0930    0.3360 h1        1 MOL      0.135156
     60 N6         -6.4020    0.0550   -1.7150 n         1 MOL     -0.126832
     61 C19        -6.5680   -1.2570   -2.2860 c3        1 MOL     -0.224436
     62 C20        -6.5020   -2.4170   -1.2720 c         1 MOL      0.481719
     63 O10        -6.5690   -3.5980   -1.6210 o         1 MOL     -0.560457
     64 C21        -5.5590   -1.4550   -3.4290 c3        1 MOL     -0.066803
     65 C22        -4.1010   -1.2690   -2.9210 c         1 MOL      0.596737
     66 O11        -3.6930   -1.8910   -1.8590 o         1 MOL     -0.672479
     67 O12        -3.4010   -0.3760   -3.4030 o         1 MOL     -0.672479
     68 H28        -5.5130    0.5360   -1.6520 hn        1 MOL      0.228904
     69 H29        -7.5140   -1.3470   -2.8060 h1        1 MOL      0.155993
     70 H30        -5.7540   -0.6800   -4.1730 hc        1 MOL      0.040801
     71 H31        -5.7280   -2.4160   -3.9230 hc        1 MOL      0.040801
     72 N7         -6.2620   -2.1670   -0.0150 n         1 MOL     -0.216056
     73 C23        -6.1880   -3.2200    1.0260 c3        1 MOL      0.002767
     74 C24        -5.0510   -4.1860    0.9270 c         1 MOL      0.442982
     75 O13        -5.2230   -5.3780    1.2370 o         1 MOL     -0.559910
     76 H32        -5.9960   -1.2190    0.1810 hn        1 MOL      0.164189
     77 H33        -7.1630   -3.7080    1.0960 h1        1 MOL      0.050693
     78 H34        -6.0150   -2.7480    1.9890 h1        1 MOL      0.050693
     79 N8         -3.9200   -3.8000    0.3780 n         1 MOL     -0.086300
     80 C25        -2.6120   -4.5630    0.3690 c3        1 MOL     -0.325047
     81 C26        -1.4530   -3.6350    0.5650 c         1 MOL      0.706675
     82 O14        -1.4670   -2.4920    0.1500 o         1 MOL     -0.727630
     83 C27        -2.4880   -5.4320   -0.8830 c3        1 MOL      0.548743
     84 C28        -3.3620   -6.7120   -0.7850 c3        1 MOL     -0.470858
     85 O15        -2.8980   -4.7230   -2.1080 oh        1 MOL     -0.654221
     86 H35        -3.8260   -2.8510    0.0490 hn        1 MOL      0.153396
     87 H36        -2.4880   -5.2780    1.1830 h1        1 MOL      0.093730
     88 H37        -1.4350   -5.7100   -0.8410 h1        1 MOL     -0.052070
     89 H38        -3.4390   -3.9830   -1.8380 ho        1 MOL      0.401143
     90 H39        -3.3820   -7.0560    0.2530 hc        1 MOL      0.125390
     91 H40        -4.4000   -6.4630   -1.0010 hc        1 MOL      0.125390
     92 H41        -3.0210   -7.4710   -1.4860 hc        1 MOL      0.125390
     93 N9         -0.3740   -4.1350    1.1220 n         1 MOL     -0.470125
     94 C29         0.7830   -3.3920    1.4940 c3        1 MOL      0.050356
     95 C30         1.9500   -3.8050    0.5490 c         1 MOL      0.458723
     96 O16         2.2480   -4.9710    0.3240 o         1 MOL     -0.550922
     97 C31         1.0310   -3.5720    3.0000 c3        1 MOL     -0.105967
     98 C32        -0.1520   -2.8250    3.7810 c3        1 MOL      0.030049
     99 C33         2.3790   -2.9390    3.3880 c3        1 MOL     -0.060599
    100 C34         0.0070   -2.9640    5.3210 c3        1 MOL     -0.297989
    101 H42        -0.4110   -5.0990    1.4260 hn        1 MOL      0.294220
    102 H43         0.6360   -2.3210    1.3290 h1        1 MOL      0.140014
    103 H44         1.0430   -4.6280    3.2520 hc        1 MOL      0.068202
    104 H45        -1.1170   -3.2050    3.4450 hc        1 MOL      0.040915
    105 H46        -0.1580   -1.7720    3.5360 hc        1 MOL      0.040915
    106 H47         2.3340   -1.8910    3.0770 hc        1 MOL      0.026359
    107 H48         2.6220   -2.9650    4.4530 hc        1 MOL      0.026359
    108 H49         3.2730   -3.4100    2.9840 hc        1 MOL      0.026359
    109 H50        -0.9020   -2.7440    5.8820 hc        1 MOL      0.074123
    110 H51         0.3530   -3.9590    5.5930 hc        1 MOL      0.074123
    111 H52         0.7930   -2.2920    5.6580 hc        1 MOL      0.074123
    112 N10         2.4990   -2.8290   -0.1550 n         1 MOL      0.030607
    113 C35         3.6430   -2.8660   -1.0630 c3        1 MOL     -0.044126
    114 C36         5.1010   -2.6380   -0.4420 c         1 MOL      0.346299
    115 O17         5.1680   -2.1480    0.6940 o         1 MOL     -0.383155
    116 C37         3.5140   -1.7560   -2.1570 c3        1 MOL      0.000234
    117 C38         2.3340   -1.9770   -2.9410 c3        1 MOL     -0.157628
    118 O18         3.4000   -0.5960   -1.4720 oh        1 MOL     -0.443510
    119 H53         2.1960   -1.9110    0.1270 hn        1 MOL     -0.053617
    120 H54         3.6280   -3.8440   -1.5380 h1        1 MOL      0.077123
    121 H55         4.3770   -1.6830   -2.8220 h1        1 MOL      0.093358
    122 H56         2.5340   -0.3990   -1.1320 ho        1 MOL      0.297128
    123 H57         1.4260   -1.9510   -2.3320 hc        1 MOL      0.052213
    124 H58         2.3100   -1.1380   -3.6300 hc        1 MOL      0.052213
    125 H59         2.3150   -2.9490   -3.4370 hc        1 MOL      0.052213
    126 N11         6.1480   -2.7050   -1.1650 n         1 MOL     -0.293129
    127 C39         7.4080   -2.0800   -0.7930 c3        1 MOL     -0.016215
    128 C40         7.3420   -0.5910   -0.4190 c         1 MOL      0.400255
    129 O19         7.9790   -0.1630    0.5350 o         1 MOL     -0.491084
    130 C41         8.5220   -2.1690   -1.8350 c3        1 MOL      0.272919
    131 C42         9.2810   -3.5500   -1.7520 c3        1 MOL     -0.449369
    132 O20         8.0450   -1.9930   -3.1490 oh        1 MOL     -0.664817
    133 H60         6.0580   -3.1210   -2.0880 hn        1 MOL      0.293356
    134 H61         7.7960   -2.4950    0.1480 h1        1 MOL      0.128704
    135 H62         9.2300   -1.4080   -1.5320 h1        1 MOL      0.044773
    136 H63         8.7810   -1.9490   -3.7650 ho        1 MOL      0.425618
    137 H64         9.3700   -3.8660   -0.7060 hc        1 MOL      0.130161
    138 H65         8.6760   -4.2320   -2.3440 hc        1 MOL      0.130161
    139 H66        10.2670   -3.4360   -2.1980 hc        1 MOL      0.130161
    140 N12         6.4380    0.1080   -1.1080 n         1 MOL     -0.256993
    141 C43         6.2510    1.5450   -0.8380 c3        1 MOL     -0.057234
    142 C44         5.2870    1.8470    0.3150 c         1 MOL      0.503914
    143 O21         4.8720    3.0210    0.4080 o         1 MOL     -0.623583
    144 C45         5.9620    2.3710   -2.1200 c3        1 MOL      0.081557
    145 C46         4.7090    2.0710   -2.9480 c3        1 MOL     -0.147732
    146 C47         4.4220    3.1960   -3.8560 c3        1 MOL     -0.236833
    147 C48         5.4850    3.5400   -4.8960 c3        1 MOL      0.066117
    148 N13         5.9480    2.4960   -5.8470 n4        1 MOL     -0.338820
    149 H67         5.8630   -0.3810   -1.7740 hn        1 MOL      0.192795
    150 H68         7.1750    1.9140   -0.3930 h1        1 MOL      0.126195
    151 H69         6.8640    2.2530   -2.7370 hc        1 MOL     -0.010851
    152 H70         5.9070    3.4200   -1.8140 hc        1 MOL     -0.010851
    153 H71         3.9130    2.0600   -2.2150 hc        1 MOL      0.094361
    154 H72         4.8970    1.1140   -3.4260 hc        1 MOL      0.094361
    155 H73         4.2050    4.0720   -3.2560 hc        1 MOL      0.140283
    156 H74         3.5540    2.9670   -4.4720 hc        1 MOL      0.140283
    157 H75         6.3220    3.9340   -4.3180 hx        1 MOL      0.074535
    158 H76         5.1530    4.4210   -5.4580 hx        1 MOL      0.074535
    159 H77         6.7060    2.8300   -6.4190 hn        1 MOL      0.322694
    160 H78         6.3010    1.7840   -5.2260 hn        1 MOL      0.322694
    161 H79         5.2240    2.0180   -6.3620 hn        1 MOL      0.322694
    162 N14         4.7840    0.9040    1.0930 n         1 MOL      0.114719
    163 C49         4.0030    0.9580    2.3150 c3        1 MOL     -0.246156
    164 C50         4.6070    0.2260    3.5120 c         1 MOL      0.523696
    165 O22         4.3810    0.6510    4.6480 o         1 MOL     -0.521809
    166 C51         2.5440    0.4670    1.9170 c3        1 MOL      0.154257
    167 C52         1.7000    1.4960    1.1770 c3        1 MOL     -0.023083
    168 C53         0.6420    0.8720    0.3340 c         1 MOL      0.441516
    169 O23         0.8680   -0.1780   -0.3360 o         1 MOL     -0.574141
    170 O24        -0.4570    1.4550    0.2200 o         1 MOL     -0.574141
    171 H80         5.0640   -0.0070    0.7650 hn        1 MOL     -0.331192
    172 H81         3.9460    1.9520    2.7470 h1        1 MOL      0.115193
    173 H82         1.9600    0.2800    2.8230 hc        1 MOL      0.024324
    174 H83         2.6510   -0.4600    1.3540 hc        1 MOL      0.024324
    175 H84         2.4230    2.0960    0.6270 hc        1 MOL      0.049620
    176 H85         1.2300    2.0810    1.9560 hc        1 MOL      0.049620
    177 N15         5.5620   -0.7580    3.3460 n         1 MOL     -0.273528
    178 C54         6.2290   -1.5010    4.4600 c3        1 MOL     -0.246428
    179 H86         6.5190   -0.7990    5.2420 h1        1 MOL      0.112367
    180 H87         5.5370   -2.2370    4.8710 h1        1 MOL      0.112367
    181 H88         7.1160   -2.0070    4.0810 h1        1 MOL      0.112367
    182 H89         5.6610   -1.1490    2.4200 hn        1 MOL      0.301425
    183 Ca1        -1.6350   -0.2200   -1.4410 Ca        1 MOL      1.748228
    184 O25        -1.0520   -2.6100   -2.9070 oh        1 MOL     -0.793100
    185 H90        -1.6830   -3.2370   -2.5630 ho        1 MOL      0.381342
    186 H91        -0.6340   -3.0600   -3.6390 ho        1 MOL      0.381342
    187 O26        -0.2030    0.4290   -3.6100 oh        1 MOL     -0.793100
    188 H92         0.1270    0.0670   -4.4360 ho        1 MOL      0.381342
    189 H93        -0.0750    1.3690   -3.7010 ho        1 MOL      0.381342
@<TRIPOS>BOND
     1    1    2 1   
     2    1    4 1   
     3    1    5 1   
     4    1    6 1   
     5    2    3 2   
     6    2    7 1   
     7    7    8 1   
     8    7   15 1   
     9    8    9 1   
    10    8   11 1   
    11    8   16 1   
    12    9   10 2   
    13    9   19 1   
    14   11   12 1   
    15   11   17 1   
    16   11   18 1   
    17   12   13 1   
    18   12   14 1   
    19   19   20 1   
    20   19   28 1   
    21   20   21 1   
    22   20   23 1   
    23   20   29 1   
    24   21   22 2   
    25   21   41 1   
    26   23   24 1   
    27   23   30 1   
    28   23   31 1   
    29   24   25 1   
    30   24   32 1   
    31   24   33 1   
    32   25   26 1   
    33   25   34 1   
    34   25   35 1   
    35   26   27 1   
    36   26   36 1   
    37   26   37 1   
    38   27   38 1   
    39   27   39 1   
    40   27   40 1   
    41   41   42 1   
    42   41   49 1   
    43   42   43 1   
    44   42   45 1   
    45   42   50 1   
    46   43   44 2   
    47   43   53 1   
    48   45   46 1   
    49   45   51 1   
    50   45   52 1   
    51   46   47 1   
    52   46   48 1   
    53   53   54 1   
    54   53   57 1   
    55   54   55 1   
    56   54   58 1   
    57   54   59 1   
    58   55   56 2   
    59   55   60 1   
    60   60   61 1   
    61   60   68 1   
    62   61   62 1   
    63   61   64 1   
    64   61   69 1   
    65   62   63 2   
    66   62   72 1   
    67   64   65 1   
    68   64   70 1   
    69   64   71 1   
    70   65   66 1   
    71   65   67 1   
    72   72   73 1   
    73   72   76 1   
    74   73   74 1   
    75   73   77 1   
    76   73   78 1   
    77   74   75 2   
    78   74   79 1   
    79   79   80 1   
    80   79   86 1   
    81   80   81 1   
    82   80   83 1   
    83   80   87 1   
    84   81   82 2   
    85   81   93 1   
    86   83   84 1   
    87   83   85 1   
    88   83   88 1   
    89   84   90 1   
    90   84   91 1   
    91   84   92 1   
    92   85   89 1   
    93   93   94 1   
    94   93  101 1   
    95   94   95 1   
    96   94   97 1   
    97   94  102 1   
    98   95   96 2   
    99   95  112 1   
   100   97   98 1   
   101   97   99 1   
   102   97  103 1   
   103   98  100 1   
   104   98  104 1   
   105   98  105 1   
   106   99  106 1   
   107   99  107 1   
   108   99  108 1   
   109  100  109 1   
   110  100  110 1   
   111  100  111 1   
   112  112  113 1   
   113  112  119 1   
   114  113  114 1   
   115  113  116 1   
   116  113  120 1   
   117  114  115 2   
   118  114  126 1   
   119  116  117 1   
   120  116  118 1   
   121  116  121 1   
   122  117  123 1   
   123  117  124 1   
   124  117  125 1   
   125  118  122 1   
   126  126  127 1   
   127  126  133 1   
   128  127  128 1   
   129  127  130 1   
   130  127  134 1   
   131  128  129 2   
   132  128  140 1   
   133  130  131 1   
   134  130  132 1   
   135  130  135 1   
   136  131  137 1   
   137  131  138 1   
   138  131  139 1   
   139  132  136 1   
   140  140  141 1   
   141  140  149 1   
   142  141  142 1   
   143  141  144 1   
   144  141  150 1   
   145  142  143 2   
   146  142  162 1   
   147  144  145 1   
   148  144  151 1   
   149  144  152 1   
   150  145  146 1   
   151  145  153 1   
   152  145  154 1   
   153  146  147 1   
   154  146  155 1   
   155  146  156 1   
   156  147  148 1   
   157  147  157 1   
   158  147  158 1   
   159  148  159 1   
   160  148  160 1   
   161  148  161 1   
   162  162  163 1   
   163  162  171 1   
   164  163  164 1   
   165  163  166 1   
   166  163  172 1   
   167  164  165 2   
   168  164  177 1   
   169  166  167 1   
   170  166  173 1   
   171  166  174 1   
   172  167  168 1   
   173  167  175 1   
   174  167  176 1   
   175  168  169 1   
   176  168  170 1   
   177  177  178 1   
   178  177  182 1   
   179  178  179 1   
   180  178  180 1   
   181  178  181 1   
   182  184  185 1   
   183  184  186 1   
   184  187  188 1   
   185  187  189 1   
@<TRIPOS>SUBSTRUCTURE
     1 MOL         1 TEMP              0 ****  ****    0 ROOT
