@<TRIPOS>MOLECULE
MOL
  172   171     1     0     0
SMALL
resp


@<TRIPOS>ATOM
      1 C1          0.0700    3.3310    5.7210 c3        1 MOL     -0.407992
      2 C2         -0.5120    3.3880    4.3360 c         1 MOL      0.673512
      3 O1          0.1840    3.7400    3.4230 o         1 MOL     -0.545438
      4 H1          0.4240    4.3220    6.0070 hc        1 MOL      0.096031
      5 H2         -0.6950    3.0020    6.4250 hc        1 MOL      0.096031
      6 H3          0.9040    2.6290    5.7370 hc        1 MOL      0.096031
      7 N1         -1.6960    2.8580    4.0970 n         1 MOL     -0.439488
      8 C3         -2.3380    2.8600    2.7540 c3        1 MOL      0.040730
      9 C4         -2.3960    4.2330    2.0360 c         1 MOL      0.514867
     10 O2         -2.7280    5.2610    2.6190 o         1 MOL     -0.587182
     11 C5         -3.8600    2.3220    2.8390 c3        1 MOL     -0.317924
     12 C6         -4.4720    2.2680    1.4190 c         1 MOL      0.662197
     13 O3         -5.6350    2.7770    1.3060 o         1 MOL     -0.623400
     14 O4         -3.7980    1.8320    0.4410 o         1 MOL     -0.623400
     15 H4         -2.2610    2.5540    4.8680 hn        1 MOL      0.281105
     16 H5         -1.7370    2.2090    2.1290 h1        1 MOL      0.036199
     17 H6         -4.4420    2.8930    3.5660 hc        1 MOL      0.062737
     18 H7         -3.8820    1.3010    3.2170 hc        1 MOL      0.062737
     19 N2         -2.0240    4.3430    0.7830 n         1 MOL     -0.289377
     20 C7         -2.2700    5.4870   -0.0450 c3        1 MOL      0.299179
     21 C8         -3.1210    5.2140   -1.3260 c         1 MOL      0.373425
     22 O5         -3.1080    6.0620   -2.2200 o         1 MOL     -0.554337
     23 C9         -0.9550    6.3410   -0.2660 c3        1 MOL     -0.341579
     24 H8         -1.7320    3.4830    0.3230 hn        1 MOL      0.233833
     25 H9         -2.9890    6.0630    0.5430 h1        1 MOL      0.033459
     26 H10        -0.3100    6.2830    0.6120 hc        1 MOL      0.077437
     27 H11        -0.3300    6.0820   -1.1140 hc        1 MOL      0.077437
     28 H12        -1.3730    7.3100   -0.5270 hc        1 MOL      0.077437
     29 N3         -3.9050    4.1430   -1.4090 n         1 MOL     -0.197100
     30 C10        -4.8270    3.8090   -2.4930 c3        1 MOL      0.045285
     31 C11        -6.2270    3.3280   -1.9820 c         1 MOL      0.401256
     32 O6         -7.1970    4.0160   -2.2120 o         1 MOL     -0.565685
     33 C12        -4.0880    2.9010   -3.4840 c3        1 MOL     -0.204174
     34 C13        -3.3920    1.6980   -2.8520 c         1 MOL      0.644212
     35 O7         -4.0690    0.7660   -2.3530 o         1 MOL     -0.662755
     36 O8         -2.1240    1.6820   -2.7310 o         1 MOL     -0.662755
     37 H13        -3.8180    3.4180   -0.7090 hn        1 MOL      0.115180
     38 H14        -4.9940    4.6580   -3.1500 h1        1 MOL      0.076597
     39 H15        -3.2980    3.5620   -3.8540 hc        1 MOL      0.056695
     40 H16        -4.7060    2.6710   -4.3580 hc        1 MOL      0.056695
     41 N4         -6.2710    2.1450   -1.3550 n         1 MOL     -0.021565
     42 C14        -7.4450    1.3130   -0.9260 c3        1 MOL     -0.266200
     43 C15        -7.4260   -0.2130   -1.0870 c         1 MOL      0.497945
     44 O9         -8.3340   -0.9300   -0.7790 o         1 MOL     -0.596786
     45 H17        -5.3960    1.6700   -1.2400 hn        1 MOL      0.128316
     46 H18        -8.3280    1.6930   -1.4480 h1        1 MOL      0.117280
     47 H19        -7.5240    1.4840    0.1450 h1        1 MOL      0.117280
     48 N5         -6.3400   -0.7300   -1.6510 n         1 MOL     -0.122781
     49 C16        -6.2260   -2.1380   -2.1210 c3        1 MOL     -0.044567
     50 C17        -6.1760   -3.1800   -0.9560 c         1 MOL      0.498155
     51 O10        -6.2900   -4.3890   -1.2600 o         1 MOL     -0.526211
     52 C18        -5.0570   -2.3020   -3.1080 c3        1 MOL     -0.070426
     53 C19        -3.6410   -2.2090   -2.5780 c         1 MOL      0.618163
     54 N6         -2.7310   -2.2960   -3.4630 n         1 MOL     -0.655810
     55 O11        -3.4090   -1.9730   -1.4230 o         1 MOL     -0.571488
     56 H20        -5.5640   -0.1550   -1.9420 hn        1 MOL      0.005560
     57 H21        -7.1770   -2.3190   -2.6300 h1        1 MOL      0.092526
     58 H22        -5.1880   -1.5640   -3.9010 hc        1 MOL      0.037072
     59 H23        -5.2280   -3.2600   -3.6110 hc        1 MOL      0.037072
     60 H24        -2.9590   -2.3430   -4.4500 hn        1 MOL      0.341395
     61 H25        -1.7730   -2.1680   -3.1590 hn        1 MOL      0.341395
     62 N7         -6.1650   -2.7700    0.3510 n         1 MOL     -0.283740
     63 C20        -6.1680   -3.7540    1.3900 c3        1 MOL     -0.266639
     64 C21        -4.8970   -4.6120    1.6070 c         1 MOL      0.531129
     65 O12        -5.0370   -5.6670    2.2830 o         1 MOL     -0.556073
     66 H26        -6.2580   -1.8010    0.6270 hn        1 MOL      0.340311
     67 H27        -7.0560   -4.3830    1.2780 h1        1 MOL      0.112836
     68 H28        -6.2930   -3.2660    2.3540 h1        1 MOL      0.112836
     69 N8         -3.7970   -4.0440    1.0540 n         1 MOL     -0.211309
     70 C22        -2.3950   -4.5720    1.1630 c3        1 MOL     -0.319673
     71 C23        -1.3790   -3.4940    1.2550 c         1 MOL      0.658589
     72 O13        -1.5270   -2.3770    0.7730 o         1 MOL     -0.589336
     73 C24        -2.0890   -5.4930   -0.0600 c3        1 MOL      0.586134
     74 C25        -2.9010   -6.7790   -0.0710 c3        1 MOL     -0.537775
     75 O14        -2.3960   -4.8410   -1.2830 oh        1 MOL     -0.617315
     76 H29        -3.9060   -3.1310    0.6430 hn        1 MOL      0.208231
     77 H30        -2.3120   -5.2620    2.0100 h1        1 MOL      0.100950
     78 H31        -1.0320   -5.7570   -0.0190 h1        1 MOL     -0.057490
     79 H32        -2.1580   -3.9080   -1.2190 ho        1 MOL      0.342371
     80 H33        -2.3800   -7.4550   -0.7460 hc        1 MOL      0.139368
     81 H34        -2.9290   -7.2760    0.9010 hc        1 MOL      0.139368
     82 H35        -3.9520   -6.6160   -0.3390 hc        1 MOL      0.139368
     83 N9         -0.2430   -3.8980    1.8390 n         1 MOL     -0.533671
     84 C26         0.9810   -3.0310    1.8480 c3        1 MOL      0.013534
     85 C27         1.5650   -3.1310    0.4290 c         1 MOL      0.534576
     86 O15         1.9100   -4.2640   -0.0370 o         1 MOL     -0.578515
     87 C28         1.9080   -3.5380    2.9140 c3        1 MOL     -0.013424
     88 C29         1.3060   -3.7970    4.3030 c3        1 MOL     -0.025442
     89 C30         3.1560   -2.6760    3.1150 c3        1 MOL     -0.120047
     90 C31         0.8880   -2.5270    5.0580 c3        1 MOL     -0.188676
     91 H36        -0.1090   -4.8100    2.2340 hn        1 MOL      0.312038
     92 H37         0.6470   -2.0240    2.1130 h1        1 MOL      0.207680
     93 H38         2.3200   -4.4810    2.5560 hc        1 MOL      0.012712
     94 H39         1.9820   -4.3730    4.9220 hc        1 MOL      0.022109
     95 H40         0.4780   -4.4890    4.1420 hc        1 MOL      0.022109
     96 H41         2.8090   -1.6870    3.4340 hc        1 MOL      0.030089
     97 H42         3.7060   -3.0730    3.9650 hc        1 MOL      0.030089
     98 H43         3.7480   -2.5690    2.2040 hc        1 MOL      0.030089
     99 H44         0.1170   -1.9610    4.5370 hc        1 MOL      0.048785
    100 H45         0.5340   -2.8370    6.0350 hc        1 MOL      0.048785
    101 H46         1.7280   -1.8520    5.2550 hc        1 MOL      0.048785
    102 N10         1.8770   -1.9600   -0.0950 n         1 MOL     -0.150191
    103 C32         2.7670   -1.7920   -1.2770 c3        1 MOL      0.040671
    104 C33         4.1620   -1.3320   -0.9110 c         1 MOL      0.299952
    105 O16         4.3540   -0.7030    0.1220 o         1 MOL     -0.134418
    106 C34         2.1380   -0.7490   -2.2880 c3        1 MOL     -0.156904
    107 C35         0.6720   -1.1290   -2.6830 c         1 MOL      0.653878
    108 O17        -0.3110   -1.0240   -1.9300 o         1 MOL     -0.667705
    109 O18         0.4710   -1.3890   -3.9000 o         1 MOL     -0.667705
    110 H47         1.6810   -1.1120    0.4260 hn        1 MOL     -0.035988
    111 H48         2.9020   -2.7240   -1.8330 h1        1 MOL      0.065842
    112 H49         2.8170   -0.7110   -3.1380 hc        1 MOL      0.052919
    113 H50         2.1560    0.2680   -1.8880 hc        1 MOL      0.052919
    114 N11         5.2220   -1.6550   -1.7500 n         1 MOL     -0.506138
    115 C36         6.5850   -1.2670   -1.4480 c3        1 MOL      0.137485
    116 C37         6.8140    0.2480   -0.9170 c         1 MOL      0.382960
    117 O19         7.5060    0.3740    0.0960 o         1 MOL     -0.506541
    118 C38         7.5220   -1.4460   -2.6920 c3        1 MOL     -0.166411
    119 C39         8.9710   -1.3040   -2.4990 ca        1 MOL      0.086105
    120 C40         9.6310   -2.0700   -1.4990 ca        1 MOL     -0.105237
    121 C41         9.6740   -0.4630   -3.3180 ca        1 MOL     -0.105237
    122 C42        10.9910   -1.9440   -1.2770 ca        1 MOL     -0.188323
    123 C43        11.0580   -0.3010   -3.0780 ca        1 MOL     -0.188323
    124 C44        11.6880   -0.9470   -2.0050 ca        1 MOL     -0.045995
    125 H51         5.1760   -2.3220   -2.4990 hn        1 MOL      0.333360
    126 H52         6.9130   -1.9180   -0.6370 h1        1 MOL      0.067049
    127 H53         7.2770   -0.6420   -3.3860 hc        1 MOL      0.048818
    128 H54         7.3150   -2.3890   -3.1850 hc        1 MOL      0.048818
    129 H55         9.0360   -2.6820   -0.8450 ha        1 MOL      0.112036
    130 H56         9.2560    0.0750   -4.1520 ha        1 MOL      0.112036
    131 H57        11.4170   -2.3930   -0.3880 ha        1 MOL      0.125352
    132 H58        11.5860    0.3190   -3.7880 ha        1 MOL      0.125352
    133 H59        12.7000   -0.6910   -1.7080 ha        1 MOL      0.090473
    134 N12         6.1900    1.3350   -1.4390 n         1 MOL     -0.057654
    135 C45         6.3930    2.6990   -0.8390 c3        1 MOL     -0.140451
    136 C46         5.6330    2.7540    0.5260 c         1 MOL      0.399462
    137 O20         5.8990    3.6600    1.3070 o         1 MOL     -0.536281
    138 C47         5.8480    3.6820   -1.9060 c3        1 MOL     -0.090449
    139 C48         4.8280    2.8660   -2.6460 c3        1 MOL      0.083956
    140 C49         5.3650    1.4780   -2.6580 c3        1 MOL     -0.061339
    141 H60         7.4640    2.9170   -0.7420 h1        1 MOL      0.110223
    142 H61         5.4440    4.5940   -1.4670 hc        1 MOL      0.057463
    143 H62         6.6660    3.9630   -2.5740 hc        1 MOL      0.057463
    144 H63         3.8520    2.9050   -2.1680 hc        1 MOL      0.004862
    145 H64         4.8040    3.3160   -3.6390 hc        1 MOL      0.004862
    146 H65         4.5460    0.7710   -2.7310 h1        1 MOL      0.030200
    147 H66         5.9910    1.3710   -3.5490 h1        1 MOL      0.030200
    148 N13         4.6710    1.9260    0.8170 n         1 MOL     -0.044957
    149 C50         4.0170    1.8560    2.1140 c3        1 MOL     -0.087989
    150 C51         4.8130    0.9560    3.1460 c         1 MOL      0.440565
    151 O21         5.1980    1.4930    4.1720 o         1 MOL     -0.567101
    152 C52         2.5400    1.3530    1.8360 c3        1 MOL     -0.023155
    153 C53         1.6620    2.1590    0.8920 c3        1 MOL     -0.184970
    154 C54         0.3140    1.4120    0.7520 c         1 MOL      0.842976
    155 O22        -0.0150    0.4080    1.4560 o         1 MOL     -0.799852
    156 O23        -0.5080    1.9030    0.0100 o         1 MOL     -0.799852
    157 H67         4.4600    1.2100    0.1300 hn        1 MOL      0.123064
    158 H68         4.0700    2.8760    2.4890 h1        1 MOL      0.098373
    159 H69         2.1170    1.2020    2.8190 hc        1 MOL      0.054310
    160 H70         2.6620    0.3500    1.4380 hc        1 MOL      0.054310
    161 H71         2.1370    2.1910   -0.0980 hc        1 MOL      0.070417
    162 H72         1.4440    3.1780    1.2070 hc        1 MOL      0.070417
    163 N14         5.2920   -0.1920    2.7610 n         1 MOL      0.006735
    164 C55         6.4000   -0.8780    3.4100 c3        1 MOL     -0.204796
    165 H73         7.0230   -0.1510    3.9300 h1        1 MOL      0.076678
    166 H74         6.0100   -1.6010    4.1280 h1        1 MOL      0.076678
    167 H75         6.9960   -1.3970    2.6590 h1        1 MOL      0.076678
    168 H76         4.9550   -0.4630    1.8430 hn        1 MOL     -0.023321
    169 Ca1        -2.2580    0.0130   -0.4910 Ca        1 MOL      1.692211
    170 O24        -4.0770   -1.0460    1.5510 oh        1 MOL     -0.905418
    171 H77        -3.2240   -1.0980    1.9670 ho        1 MOL      0.428396
    172 H78        -4.6390   -0.6490    2.2150 ho        1 MOL      0.428396
@<TRIPOS>BOND
     1    1    2 1   
     2    1    4 1   
     3    1    5 1   
     4    1    6 1   
     5    2    3 2   
     6    2    7 1   
     7    7    8 1   
     8    7   15 1   
     9    8    9 1   
    10    8   11 1   
    11    8   16 1   
    12    9   10 2   
    13    9   19 1   
    14   11   12 1   
    15   11   17 1   
    16   11   18 1   
    17   12   13 1   
    18   12   14 1   
    19   19   20 1   
    20   19   24 1   
    21   20   21 1   
    22   20   23 1   
    23   20   25 1   
    24   21   22 2   
    25   21   29 1   
    26   23   26 1   
    27   23   27 1   
    28   23   28 1   
    29   29   30 1   
    30   29   37 1   
    31   30   31 1   
    32   30   33 1   
    33   30   38 1   
    34   31   32 2   
    35   31   41 1   
    36   33   34 1   
    37   33   39 1   
    38   33   40 1   
    39   34   35 1   
    40   34   36 1   
    41   41   42 1   
    42   41   45 1   
    43   42   43 1   
    44   42   46 1   
    45   42   47 1   
    46   43   44 2   
    47   43   48 1   
    48   48   49 1   
    49   48   56 1   
    50   49   50 1   
    51   49   52 1   
    52   49   57 1   
    53   50   51 2   
    54   50   62 1   
    55   52   53 1   
    56   52   58 1   
    57   52   59 1   
    58   53   54 1   
    59   53   55 2   
    60   54   60 1   
    61   54   61 1   
    62   62   63 1   
    63   62   66 1   
    64   63   64 1   
    65   63   67 1   
    66   63   68 1   
    67   64   65 2   
    68   64   69 1   
    69   69   70 1   
    70   69   76 1   
    71   70   71 1   
    72   70   73 1   
    73   70   77 1   
    74   71   72 2   
    75   71   83 1   
    76   73   74 1   
    77   73   75 1   
    78   73   78 1   
    79   74   80 1   
    80   74   81 1   
    81   74   82 1   
    82   75   79 1   
    83   83   84 1   
    84   83   91 1   
    85   84   85 1   
    86   84   87 1   
    87   84   92 1   
    88   85   86 2   
    89   85  102 1   
    90   87   88 1   
    91   87   89 1   
    92   87   93 1   
    93   88   90 1   
    94   88   94 1   
    95   88   95 1   
    96   89   96 1   
    97   89   97 1   
    98   89   98 1   
    99   90   99 1   
   100   90  100 1   
   101   90  101 1   
   102  102  103 1   
   103  102  110 1   
   104  103  104 1   
   105  103  106 1   
   106  103  111 1   
   107  104  105 2   
   108  104  114 1   
   109  106  107 1   
   110  106  112 1   
   111  106  113 1   
   112  107  108 1   
   113  107  109 1   
   114  114  115 1   
   115  114  125 1   
   116  115  116 1   
   117  115  118 1   
   118  115  126 1   
   119  116  117 2   
   120  116  134 1   
   121  118  119 1   
   122  118  127 1   
   123  118  128 1   
   124  119  120 ar  
   125  119  121 ar  
   126  120  122 ar  
   127  120  129 1   
   128  121  123 ar  
   129  121  130 1   
   130  122  124 ar  
   131  122  131 1   
   132  123  124 ar  
   133  123  132 1   
   134  124  133 1   
   135  134  135 1   
   136  134  140 1   
   137  135  136 1   
   138  135  138 1   
   139  135  141 1   
   140  136  137 2   
   141  136  148 1   
   142  138  139 1   
   143  138  142 1   
   144  138  143 1   
   145  139  140 1   
   146  139  144 1   
   147  139  145 1   
   148  140  146 1   
   149  140  147 1   
   150  148  149 1   
   151  148  157 1   
   152  149  150 1   
   153  149  152 1   
   154  149  158 1   
   155  150  151 2   
   156  150  163 1   
   157  152  153 1   
   158  152  159 1   
   159  152  160 1   
   160  153  154 1   
   161  153  161 1   
   162  153  162 1   
   163  154  155 1   
   164  154  156 1   
   165  163  164 1   
   166  163  168 1   
   167  164  165 1   
   168  164  166 1   
   169  164  167 1   
   170  170  171 1   
   171  170  172 1   
@<TRIPOS>SUBSTRUCTURE
     1 MOL         1 TEMP              0 ****  ****    0 ROOT
