@<TRIPOS>MOLECULE
MOL
  172   171     1     0     0
SMALL
resp


@<TRIPOS>ATOM
      1 C1         -0.5770   -3.5050    6.0360 c3        1 MOL     -0.478239
      2 C2         -0.0070   -3.6310    4.6210 c         1 MOL      0.712991
      3 O1         -0.8490   -3.9160    3.7530 o         1 MOL     -0.568066
      4 H1         -1.1150   -4.4170    6.2930 hc        1 MOL      0.118211
      5 H2          0.2380   -3.3540    6.7440 hc        1 MOL      0.118211
      6 H3         -1.2590   -2.6560    6.0800 hc        1 MOL      0.118211
      7 N1          1.2660   -3.5110    4.3280 n         1 MOL     -0.595678
      8 C3          1.7950   -3.2430    2.9650 c3        1 MOL      0.156173
      9 C4          1.7130   -4.4930    2.1140 c         1 MOL      0.609178
     10 O2          1.9890   -5.5480    2.6090 o         1 MOL     -0.581230
     11 C5          3.1670   -2.5760    3.1430 c3        1 MOL     -0.376079
     12 C6          3.8130   -2.1090    1.8450 c         1 MOL      0.792084
     13 O3          5.0580   -1.9400    1.8740 o         1 MOL     -0.730910
     14 O4          3.1830   -2.0200    0.7970 o         1 MOL     -0.730910
     15 H4          1.9050   -3.4180    5.1100 hn        1 MOL      0.317986
     16 H5          1.1590   -2.5210    2.4500 h1        1 MOL      0.067816
     17 H6          3.8240   -3.3370    3.5570 hc        1 MOL      0.087551
     18 H7          3.2110   -1.8200    3.9240 hc        1 MOL      0.087551
     19 N2          1.5160   -4.3070    0.7740 n         1 MOL     -0.581370
     20 C7          1.5260   -5.3110   -0.3510 c3        1 MOL      0.085123
     21 C8          2.4430   -4.9620   -1.5670 c         1 MOL      0.608959
     22 O5          2.1540   -5.5740   -2.6140 o         1 MOL     -0.568310
     23 C9          0.0820   -5.6260   -0.5280 c3        1 MOL     -0.026167
     24 H8          1.4810   -3.3250    0.5160 hn        1 MOL      0.574340
     25 H9          1.9030   -6.2910   -0.0610 h1        1 MOL      0.040957
     26 H10        -0.3760   -6.1040    0.3340 hc        1 MOL      0.009148
     27 H11        -0.4240   -4.7350   -0.9220 hc        1 MOL      0.009148
     28 H12        -0.0870   -6.4060   -1.2760 hc        1 MOL      0.009148
     29 N3          3.4660   -4.0800   -1.4840 n         1 MOL     -0.529138
     30 C10         4.3330   -3.7140   -2.5950 c3        1 MOL      0.101862
     31 C11         5.7180   -3.2490   -2.1310 c         1 MOL      0.448161
     32 O6          6.6890   -3.1860   -2.8610 o         1 MOL     -0.573734
     33 C12         3.6410   -2.6650   -3.5360 c3        1 MOL     -0.266078
     34 C13         2.9000   -1.5280   -2.8250 c         1 MOL      0.684943
     35 O7          1.7700   -1.1180   -3.1460 o         1 MOL     -0.644038
     36 O8          3.6150   -0.9510   -1.9950 o         1 MOL     -0.644038
     37 H13         3.4500   -3.4850   -0.6700 hn        1 MOL      0.171375
     38 H14         4.5030   -4.6420   -3.1400 h1        1 MOL      0.076448
     39 H15         2.8480   -3.1760   -4.0820 hc        1 MOL      0.069556
     40 H16         4.3150   -2.2220   -4.2740 hc        1 MOL      0.069556
     41 N4          5.8310   -2.6440   -0.9460 n         1 MOL     -0.249324
     42 C14         7.0970   -2.2150   -0.3330 c3        1 MOL     -0.169809
     43 C15         7.3000   -0.6860   -0.6940 c         1 MOL      0.529456
     44 O9          8.3410   -0.1440   -0.4640 o         1 MOL     -0.614142
     45 H17         5.0490   -2.4840   -0.3280 hn        1 MOL      0.267097
     46 H18         7.9710   -2.7910   -0.6410 h1        1 MOL      0.108194
     47 H19         7.0600   -2.3600    0.7520 h1        1 MOL      0.108194
     48 N5          6.3020   -0.0010   -1.2130 n         1 MOL     -0.167202
     49 C16         6.4520    1.3520   -1.8760 c3        1 MOL     -0.205372
     50 C17         6.4730    2.6200   -0.9640 c         1 MOL      0.470293
     51 O10         6.4370    3.7890   -1.4180 o         1 MOL     -0.495060
     52 C18         5.4540    1.4840   -3.1000 c3        1 MOL     -0.086536
     53 C19         4.1160    1.9360   -2.5950 c         1 MOL      0.485019
     54 N6          3.2100    2.0750   -3.5110 n         1 MOL     -0.594498
     55 O11         3.7470    1.9510   -1.4400 o         1 MOL     -0.414105
     56 H20         5.4540   -0.4870   -1.4460 hn        1 MOL      0.202570
     57 H21         7.4220    1.3530   -2.3710 h1        1 MOL      0.151339
     58 H22         5.3310    0.5360   -3.6390 hc        1 MOL      0.068440
     59 H23         5.8870    2.1070   -3.8770 hc        1 MOL      0.068440
     60 H24         3.4860    1.8690   -4.4550 hn        1 MOL      0.310854
     61 H25         2.2300    2.1650   -3.2550 hn        1 MOL      0.310854
     62 N7          6.5750    2.4790    0.4220 n         1 MOL     -0.329073
     63 C20         6.6130    3.7220    1.3460 c3        1 MOL     -0.271084
     64 C21         5.2450    4.4350    1.5650 c         1 MOL      0.588279
     65 O12         5.2370    5.4560    2.2930 o         1 MOL     -0.582519
     66 H26         6.3280    1.5930    0.8350 hn        1 MOL      0.254792
     67 H27         7.3220    4.4200    0.9000 h1        1 MOL      0.139986
     68 H28         7.0040    3.3830    2.3060 h1        1 MOL      0.139986
     69 N8          4.1530    3.8390    1.1090 n         1 MOL     -0.335353
     70 C22         2.8190    4.4490    1.1400 c3        1 MOL     -0.271987
     71 C23         1.6270    3.4390    1.3080 c         1 MOL      0.734288
     72 O13         1.6270    2.3530    0.6780 o         1 MOL     -0.540786
     73 C24         2.5320    5.2600   -0.1470 c3        1 MOL      0.515690
     74 C25         3.1740    6.7040   -0.0160 c3        1 MOL     -0.421705
     75 O14         3.0510    4.7130   -1.3320 oh        1 MOL     -0.526879
     76 H29         4.2140    2.9870    0.5680 hn        1 MOL      0.321981
     77 H30         2.8280    5.1940    1.9380 h1        1 MOL      0.124057
     78 H31         1.4970    5.5340   -0.3330 h1        1 MOL      0.002073
     79 H32         3.0100    3.7610   -1.2550 ho        1 MOL      0.204750
     80 H33         2.7020    7.3990   -0.7110 hc        1 MOL      0.096007
     81 H34         2.9280    7.0400    0.9940 hc        1 MOL      0.096007
     82 H35         4.2550    6.5950   -0.0880 hc        1 MOL      0.096007
     83 N9          0.6310    3.8760    2.0980 n         1 MOL     -0.804777
     84 C26        -0.6300    3.0270    2.0760 c3        1 MOL      0.288115
     85 C27        -1.2490    3.2220    0.6900 c         1 MOL      0.154308
     86 O15        -1.2930    4.3550    0.1670 o         1 MOL     -0.514351
     87 C28        -1.6330    3.4100    3.1780 c3        1 MOL      0.271661
     88 C29        -0.9550    3.7870    4.5090 c3        1 MOL      0.032099
     89 C30        -2.6150    2.2240    3.4950 c3        1 MOL     -0.618233
     90 C31        -1.9050    3.7310    5.7370 c3        1 MOL     -0.338458
     91 H36         0.6220    4.8630    2.3120 hn        1 MOL      0.365951
     92 H37        -0.3990    1.9780    2.2260 h1        1 MOL      0.076704
     93 H38        -2.1540    4.3230    2.9010 hc        1 MOL     -0.010880
     94 H39        -0.6090    4.8120    4.3930 hc        1 MOL      0.002035
     95 H40        -0.1100    3.1000    4.6300 hc        1 MOL      0.002035
     96 H41        -2.1470    1.3820    4.0240 hc        1 MOL      0.147939
     97 H42        -3.5120    2.5810    3.9920 hc        1 MOL      0.147939
     98 H43        -2.9600    1.7210    2.5950 hc        1 MOL      0.147939
     99 H44        -2.1620    2.6890    5.9390 hc        1 MOL      0.086705
    100 H45        -1.4610    4.0210    6.6860 hc        1 MOL      0.086705
    101 H46        -2.8130    4.3010    5.5160 hc        1 MOL      0.086705
    102 N10        -1.6410    2.1110    0.0080 n         1 MOL     -0.019820
    103 C32        -2.4320    2.0300   -1.2290 c3        1 MOL      0.129378
    104 C33        -3.8830    1.5920   -0.9080 c         1 MOL      0.365553
    105 O16        -4.0440    0.9040    0.0830 o         1 MOL     -0.339597
    106 C34        -1.8000    1.0480   -2.2800 c3        1 MOL     -0.092774
    107 C35        -0.4020    1.5140   -2.7050 c         1 MOL      0.582341
    108 O17        -0.3160    1.6240   -3.9370 o         1 MOL     -0.628111
    109 O18         0.5740    1.5580   -1.9170 o         1 MOL     -0.628111
    110 H47        -1.3900    1.2770    0.5160 hn        1 MOL      0.028588
    111 H48        -2.4040    3.0150   -1.7000 h1        1 MOL      0.039243
    112 H49        -2.3800    1.2330   -3.1840 hc        1 MOL      0.038092
    113 H50        -1.8740    0.0320   -1.8930 hc        1 MOL      0.038092
    114 N11        -4.8910    1.9590   -1.7730 n         1 MOL     -0.679847
    115 C36        -6.2680    1.5010   -1.4960 c3        1 MOL      0.444197
    116 C37        -6.5290    0.0290   -1.1700 c         1 MOL      0.324262
    117 O19        -7.2680   -0.3120   -0.2360 o         1 MOL     -0.506473
    118 C38        -7.2230    2.0410   -2.5770 c3        1 MOL     -0.253613
    119 C39        -8.6970    1.8770   -2.2550 ca        1 MOL      0.178156
    120 C40        -9.6340    1.1380   -2.9900 ca        1 MOL     -0.259077
    121 C41        -9.1030    2.4410   -1.0390 ca        1 MOL     -0.259077
    122 C42       -10.9500    0.9200   -2.5090 ca        1 MOL     -0.016500
    123 C43       -10.4100    2.2450   -0.5870 ca        1 MOL     -0.016500
    124 C44       -11.3230    1.4770   -1.2870 ca        1 MOL     -0.191298
    125 H51        -4.6800    2.4830   -2.6130 hn        1 MOL      0.355182
    126 H52        -6.5650    2.0200   -0.5830 h1        1 MOL      0.035781
    127 H53        -6.9640    1.4570   -3.4620 hc        1 MOL      0.068138
    128 H54        -6.9400    3.0730   -2.7670 hc        1 MOL      0.068138
    129 H55        -9.2350    0.6640   -3.8770 ha        1 MOL      0.132003
    130 H56        -8.4680    2.9750   -0.3540 ha        1 MOL      0.132003
    131 H57       -11.6870    0.3260   -3.0320 ha        1 MOL      0.087903
    132 H58       -10.7480    2.7150    0.3250 ha        1 MOL      0.087903
    133 H59       -12.2820    1.2790   -0.8310 ha        1 MOL      0.117391
    134 N12        -6.0350   -0.9580   -1.8900 n         1 MOL     -0.033809
    135 C45        -6.0960   -2.3990   -1.5350 c3        1 MOL     -0.100660
    136 C46        -5.4310   -2.7720   -0.2340 c         1 MOL      0.453873
    137 O20        -5.6120   -3.8720    0.2510 o         1 MOL     -0.530435
    138 C47        -5.5280   -3.1680   -2.7360 c3        1 MOL     -0.089901
    139 C48        -4.6210   -2.1440   -3.3450 c3        1 MOL     -0.004576
    140 C49        -5.3020   -0.8540   -3.1560 c3        1 MOL      0.069539
    141 H60        -7.1550   -2.6120   -1.4170 h1        1 MOL      0.093226
    142 H61        -4.9710   -4.0640   -2.4410 hc        1 MOL      0.056619
    143 H62        -6.3010   -3.4030   -3.4550 hc        1 MOL      0.056619
    144 H63        -3.6980   -2.0780   -2.7760 hc        1 MOL      0.035857
    145 H64        -4.4980   -2.3740   -4.4050 hc        1 MOL      0.035857
    146 H65        -4.5230   -0.0970   -3.1730 h1        1 MOL     -0.023293
    147 H66        -6.0520   -0.6180   -3.9120 h1        1 MOL     -0.023293
    148 N13        -4.5910   -1.9100    0.4250 n         1 MOL     -0.181117
    149 C50        -3.8930   -2.1130    1.7590 c3        1 MOL     -0.249712
    150 C51        -4.7260   -1.4760    2.9300 c         1 MOL      0.434735
    151 O21        -4.6950   -1.8510    4.1180 o         1 MOL     -0.555672
    152 C52        -2.4920   -1.5700    1.6860 c3        1 MOL      0.025300
    153 C53        -1.5910   -2.2110    0.6630 c3        1 MOL      0.091597
    154 C54        -0.3280   -1.4570    0.5570 c         1 MOL      0.428263
    155 O22         0.3720   -1.8830   -0.3810 o         1 MOL     -0.708711
    156 O23        -0.0150   -0.4670    1.2300 o         1 MOL     -0.708711
    157 H67        -4.3960   -1.0440   -0.0590 hn        1 MOL      0.143099
    158 H68        -3.8500   -3.1740    1.9670 h1        1 MOL      0.162943
    159 H69        -2.0190   -1.5250    2.6690 hc        1 MOL      0.067542
    160 H70        -2.6410   -0.4980    1.5470 hc        1 MOL      0.067542
    161 H71        -2.0900   -2.2540   -0.3030 hc        1 MOL      0.015448
    162 H72        -1.3480   -3.2350    0.9490 hc        1 MOL      0.015448
    163 N14        -5.4640   -0.4390    2.5440 n         1 MOL      0.043145
    164 C55        -6.3440    0.3000    3.3680 c3        1 MOL     -0.187667
    165 H73        -6.6030   -0.2930    4.2450 h1        1 MOL      0.063706
    166 H74        -5.8580    1.2220    3.6850 h1        1 MOL      0.063706
    167 H75        -7.2490    0.5390    2.8110 h1        1 MOL      0.063706
    168 H76        -5.4190   -0.2100    1.5610 hn        1 MOL      0.004848
    169 Ca1         2.0060    0.1570   -0.4600 Ca        1 MOL      1.645608
    170 O24         4.0550    0.6400    1.0970 oh        1 MOL     -0.891345
    171 H77         4.7740    0.0310    0.9110 ho        1 MOL      0.404538
    172 H78         4.0830    0.7630    2.0460 ho        1 MOL      0.404538
@<TRIPOS>BOND
     1    1    2 1   
     2    1    4 1   
     3    1    5 1   
     4    1    6 1   
     5    2    3 2   
     6    2    7 1   
     7    7    8 1   
     8    7   15 1   
     9    8    9 1   
    10    8   11 1   
    11    8   16 1   
    12    9   10 2   
    13    9   19 1   
    14   11   12 1   
    15   11   17 1   
    16   11   18 1   
    17   12   13 1   
    18   12   14 1   
    19   19   20 1   
    20   19   24 1   
    21   20   21 1   
    22   20   23 1   
    23   20   25 1   
    24   21   22 2   
    25   21   29 1   
    26   23   26 1   
    27   23   27 1   
    28   23   28 1   
    29   29   30 1   
    30   29   37 1   
    31   30   31 1   
    32   30   33 1   
    33   30   38 1   
    34   31   32 2   
    35   31   41 1   
    36   33   34 1   
    37   33   39 1   
    38   33   40 1   
    39   34   35 1   
    40   34   36 1   
    41   41   42 1   
    42   41   45 1   
    43   42   43 1   
    44   42   46 1   
    45   42   47 1   
    46   43   44 2   
    47   43   48 1   
    48   48   49 1   
    49   48   56 1   
    50   49   50 1   
    51   49   52 1   
    52   49   57 1   
    53   50   51 2   
    54   50   62 1   
    55   52   53 1   
    56   52   58 1   
    57   52   59 1   
    58   53   54 1   
    59   53   55 2   
    60   54   60 1   
    61   54   61 1   
    62   62   63 1   
    63   62   66 1   
    64   63   64 1   
    65   63   67 1   
    66   63   68 1   
    67   64   65 2   
    68   64   69 1   
    69   69   70 1   
    70   69   76 1   
    71   70   71 1   
    72   70   73 1   
    73   70   77 1   
    74   71   72 2   
    75   71   83 1   
    76   73   74 1   
    77   73   75 1   
    78   73   78 1   
    79   74   80 1   
    80   74   81 1   
    81   74   82 1   
    82   75   79 1   
    83   83   84 1   
    84   83   91 1   
    85   84   85 1   
    86   84   87 1   
    87   84   92 1   
    88   85   86 2   
    89   85  102 1   
    90   87   88 1   
    91   87   89 1   
    92   87   93 1   
    93   88   90 1   
    94   88   94 1   
    95   88   95 1   
    96   89   96 1   
    97   89   97 1   
    98   89   98 1   
    99   90   99 1   
   100   90  100 1   
   101   90  101 1   
   102  102  103 1   
   103  102  110 1   
   104  103  104 1   
   105  103  106 1   
   106  103  111 1   
   107  104  105 2   
   108  104  114 1   
   109  106  107 1   
   110  106  112 1   
   111  106  113 1   
   112  107  108 1   
   113  107  109 1   
   114  114  115 1   
   115  114  125 1   
   116  115  116 1   
   117  115  118 1   
   118  115  126 1   
   119  116  117 2   
   120  116  134 1   
   121  118  119 1   
   122  118  127 1   
   123  118  128 1   
   124  119  120 ar  
   125  119  121 ar  
   126  120  122 ar  
   127  120  129 1   
   128  121  123 ar  
   129  121  130 1   
   130  122  124 ar  
   131  122  131 1   
   132  123  124 ar  
   133  123  132 1   
   134  124  133 1   
   135  134  135 1   
   136  134  140 1   
   137  135  136 1   
   138  135  138 1   
   139  135  141 1   
   140  136  137 2   
   141  136  148 1   
   142  138  139 1   
   143  138  142 1   
   144  138  143 1   
   145  139  140 1   
   146  139  144 1   
   147  139  145 1   
   148  140  146 1   
   149  140  147 1   
   150  148  149 1   
   151  148  157 1   
   152  149  150 1   
   153  149  152 1   
   154  149  158 1   
   155  150  151 2   
   156  150  163 1   
   157  152  153 1   
   158  152  159 1   
   159  152  160 1   
   160  153  154 1   
   161  153  161 1   
   162  153  162 1   
   163  154  155 1   
   164  154  156 1   
   165  163  164 1   
   166  163  168 1   
   167  164  165 1   
   168  164  166 1   
   169  164  167 1   
   170  170  171 1   
   171  170  172 1   
@<TRIPOS>SUBSTRUCTURE
     1 MOL         1 TEMP              0 ****  ****    0 ROOT
