@<TRIPOS>MOLECULE
MOL
  182   178     1     0     0
SMALL
resp


@<TRIPOS>ATOM
      1 C1         -2.2140   -2.3140    5.9260 c3        1 MOL     -0.337763
      2 C2         -1.6860   -2.1290    4.5140 c         1 MOL      0.755916
      3 O1         -2.5070   -1.7190    3.6870 o         1 MOL     -0.597627
      4 H1         -2.9640   -3.1040    5.9330 hc        1 MOL      0.085577
      5 H2         -1.3930   -2.5870    6.5880 hc        1 MOL      0.085577
      6 H3         -2.6640   -1.3830    6.2720 hc        1 MOL      0.085577
      7 N1         -0.4260   -2.4900    4.2040 n         1 MOL     -0.629763
      8 C3          0.1640   -2.4220    2.8470 c3        1 MOL      0.021949
      9 C4          0.0250   -3.7520    2.1300 c         1 MOL      0.662221
     10 O2          0.3420   -4.7990    2.6270 o         1 MOL     -0.579348
     11 C5          1.6260   -1.9670    3.0870 c3        1 MOL     -0.202157
     12 C6          2.4310   -1.7230    1.8000 c         1 MOL      0.668236
     13 O3          1.9270   -1.9680    0.6980 o         1 MOL     -0.676584
     14 O4          3.6130   -1.2290    1.9510 o         1 MOL     -0.676584
     15 H4          0.2520   -2.8010    4.8830 hn        1 MOL      0.346614
     16 H5         -0.3830   -1.7240    2.2250 h1        1 MOL     -0.003979
     17 H6          2.0550   -2.7530    3.7070 hc        1 MOL      0.070868
     18 H7          1.6820   -1.0520    3.6700 hc        1 MOL      0.070868
     19 N2         -0.5120   -3.6900    0.9230 n         1 MOL     -0.353781
     20 C7         -0.8540   -4.9000    0.0950 c3        1 MOL     -0.009511
     21 C8          0.2880   -5.5290   -0.6570 c         1 MOL      0.558883
     22 O5          0.1210   -6.5500   -1.3010 o         1 MOL     -0.566298
     23 C9         -2.1000   -4.5560   -0.8510 c3        1 MOL     -0.166409
     24 C10        -3.4750   -4.4000   -0.1120 c3        1 MOL      0.078239
     25 C11        -4.5600   -5.1970   -0.8350 c3        1 MOL     -0.066102
     26 C12        -5.9410   -4.8740   -0.3630 c3        1 MOL      0.143170
     27 N3         -6.9520   -5.7880   -0.8990 n4        1 MOL     -0.635595
     28 H8         -0.7060   -2.7920    0.5060 hn        1 MOL      0.217736
     29 H9         -1.1390   -5.7320    0.7290 h1        1 MOL      0.079217
     30 H10        -2.2560   -5.4390   -1.4780 hc        1 MOL      0.052487
     31 H11        -1.8770   -3.7300   -1.5120 hc        1 MOL      0.052487
     32 H12        -3.7710   -3.3610   -0.0090 hc        1 MOL      0.031508
     33 H13        -3.3830   -4.7260    0.9200 hc        1 MOL      0.031508
     34 H14        -4.4650   -6.2850   -0.7960 hc        1 MOL      0.032732
     35 H15        -4.5180   -4.8980   -1.8790 hc        1 MOL      0.032732
     36 H16        -6.1990   -3.8760   -0.6970 hx        1 MOL      0.082659
     37 H17        -5.8470   -4.9860    0.7210 hx        1 MOL      0.082659
     38 H18        -7.0460   -5.6900   -1.8980 hn        1 MOL      0.399903
     39 H19        -6.7400   -6.6970   -0.5010 hn        1 MOL      0.399903
     40 H20        -7.8740   -5.5840   -0.5250 hn        1 MOL      0.399903
     41 N4          1.4620   -4.8880   -0.6640 n         1 MOL     -0.313420
     42 C13         2.7360   -5.4400   -1.2510 c3        1 MOL     -0.017950
     43 C14         4.0590   -5.0620   -0.5530 c         1 MOL      0.373041
     44 O6          5.1050   -5.7300   -0.8140 o         1 MOL     -0.548718
     45 C15         2.9660   -5.0480   -2.7260 c3        1 MOL     -0.167140
     46 C16         2.9800   -3.5150   -2.9800 c         1 MOL      0.785851
     47 O7          2.8480   -2.6730   -2.0750 o         1 MOL     -0.725352
     48 O8          3.1600   -3.1410   -4.1670 o         1 MOL     -0.725352
     49 H21         1.4570   -4.0140   -0.1610 hn        1 MOL      0.079770
     50 H22         2.6660   -6.5210   -1.3080 h1        1 MOL      0.128874
     51 H23         2.2650   -5.5440   -3.3900 hc        1 MOL      0.065566
     52 H24         3.9140   -5.3870   -3.1360 hc        1 MOL      0.065566
     53 N5          4.1090   -4.0520    0.2840 n         1 MOL     -0.113031
     54 C17         5.1930   -3.7750    1.2560 c3        1 MOL     -0.255546
     55 C18         6.1100   -2.6850    0.9220 c         1 MOL      0.583801
     56 O9          7.1820   -2.5560    1.5130 o         1 MOL     -0.594142
     57 H25         3.2630   -3.5070    0.2310 hn        1 MOL      0.225212
     58 H26         5.6950   -4.7390    1.3710 h1        1 MOL      0.127581
     59 H27         4.7420   -3.5030    2.2050 h1        1 MOL      0.127581
     60 N6          5.8070   -1.9010   -0.0710 n         1 MOL     -0.267372
     61 C19         6.6890   -0.8090   -0.6040 c3        1 MOL      0.072713
     62 C20         6.7950    0.3460    0.4220 c         1 MOL      0.300536
     63 O10         7.6850    1.1760    0.1800 o         1 MOL     -0.481268
     64 C21         6.1530   -0.4050   -1.9770 c3        1 MOL     -0.342883
     65 C22         4.9430    0.4920   -1.8210 c         1 MOL      0.549926
     66 N7          4.8690    1.6750   -2.4580 n         1 MOL     -0.720092
     67 O11         3.9760    0.2380   -1.1800 o         1 MOL     -0.392357
     68 H28         4.8700   -1.9470   -0.4550 hn        1 MOL      0.158099
     69 H29         7.6900   -1.2360   -0.6710 h1        1 MOL      0.105249
     70 H30         5.9740   -1.2930   -2.5810 hc        1 MOL      0.129616
     71 H31         6.9090    0.2330   -2.4150 hc        1 MOL      0.129616
     72 H32         5.6750    1.9710   -2.9920 hn        1 MOL      0.331482
     73 H33         4.0180    2.2200   -2.4940 hn        1 MOL      0.331482
     74 N8          5.9790    0.4080    1.4410 n         1 MOL      0.021346
     75 C23         5.9660    1.4220    2.4520 c3        1 MOL     -0.462584
     76 C24         5.0300    2.5880    2.3460 c         1 MOL      0.697106
     77 O12         5.2130    3.6240    3.0200 o         1 MOL     -0.581290
     78 H34         5.1580   -0.1900    1.4650 hn        1 MOL      0.206661
     79 H35         6.9070    1.9590    2.4110 h1        1 MOL      0.161184
     80 H36         5.7230    0.9570    3.4130 h1        1 MOL      0.161184
     81 N9          4.0100    2.4060    1.4800 n         1 MOL     -0.419840
     82 C25         2.9240    3.2990    1.0700 c3        1 MOL      0.365144
     83 C26         1.6250    2.5070    0.8120 c         1 MOL      0.168245
     84 O13         1.7150    1.3210    0.4360 o         1 MOL     -0.503537
     85 C27         3.2790    4.0120   -0.2290 c3        1 MOL      0.020628
     86 C28         4.6100    4.8330   -0.2700 ca        1 MOL     -0.123704
     87 C29         5.7600    4.1580   -0.5520 ca        1 MOL     -0.029040
     88 C30         4.6060    6.1980   -0.0100 ca        1 MOL     -0.029040
     89 C31         6.9700    4.8860   -0.7050 ca        1 MOL     -0.338904
     90 C32         5.7640    6.9270   -0.3130 ca        1 MOL     -0.338904
     91 C33         6.9810    6.2960   -0.5860 ca        1 MOL      0.444927
     92 O14         8.1400    6.9850   -0.9190 oh        1 MOL     -0.510719
     93 H37         3.8680    1.4310    1.2690 hn        1 MOL      0.215684
     94 H38         2.7030    3.9800    1.9020 h1        1 MOL     -0.032692
     95 H39         2.5480    4.8200   -0.3090 hc        1 MOL     -0.014823
     96 H40         3.2690    3.3390   -1.0920 hc        1 MOL     -0.014823
     97 H41         5.7700    3.0740   -0.5040 ha        1 MOL      0.098673
     98 H42         3.6490    6.6840    0.0770 ha        1 MOL      0.098673
     99 H43         7.8320    4.2840   -0.9390 ha        1 MOL      0.147313
    100 H44         5.7520    8.0070   -0.3070 ha        1 MOL      0.147313
    101 H45         8.0320    7.9130   -1.1270 ho        1 MOL      0.354047
    102 N10         0.4560    3.1370    0.9060 n         1 MOL     -0.206053
    103 C34        -0.8070    2.5270    0.7400 c3        1 MOL      0.030657
    104 C35        -1.7090    3.5120   -0.0170 c         1 MOL      0.288153
    105 O15        -1.8980    4.6300    0.4300 o         1 MOL     -0.505930
    106 C36        -1.3980    2.0830    2.0450 c3        1 MOL      0.150329
    107 C37        -1.7780    3.1960    3.0190 c3        1 MOL     -0.059145
    108 C38        -0.3660    1.1680    2.7290 c3        1 MOL     -0.112017
    109 C39        -2.3230    2.7820    4.4170 c3        1 MOL     -0.053877
    110 H46         0.5710    4.1260    1.1150 hn        1 MOL      0.286397
    111 H47        -0.6710    1.6060    0.1700 h1        1 MOL      0.049370
    112 H48        -2.3040    1.5180    1.8120 hc        1 MOL     -0.058156
    113 H49        -2.5650    3.7320    2.4880 hc        1 MOL     -0.009006
    114 H50        -0.8100    3.6870    2.9560 hc        1 MOL     -0.009006
    115 H51         0.5730    1.6190    3.0620 hc        1 MOL      0.049105
    116 H52        -0.8290    0.8110    3.6450 hc        1 MOL      0.049105
    117 H53        -0.1890    0.3660    2.0200 hc        1 MOL      0.049105
    118 H54        -1.5560    2.3300    5.0510 hc        1 MOL      0.018883
    119 H55        -2.6190    3.6800    4.9490 hc        1 MOL      0.018883
    120 H56        -3.1990    2.1300    4.3620 hc        1 MOL      0.018883
    121 N11        -2.3020    3.0770   -1.1190 n         1 MOL     -0.189892
    122 C40        -3.4210    3.8220   -1.7470 c3        1 MOL      0.053609
    123 C41        -4.6940    3.7850   -0.7720 c         1 MOL      0.294589
    124 O16        -4.8050    2.9180    0.1250 o         1 MOL     -0.236927
    125 C42        -3.7230    3.2220   -3.1210 c3        1 MOL     -0.126191
    126 O17        -3.9390    1.8780   -3.0510 oh        1 MOL     -0.376704
    127 H57        -2.0300    2.1310   -1.3440 hn        1 MOL      0.177176
    128 H58        -3.2210    4.8810   -1.8740 h1        1 MOL      0.082262
    129 H59        -2.8560    3.5090   -3.7090 h1        1 MOL      0.071390
    130 H60        -4.6550    3.6770   -3.4690 h1        1 MOL      0.071390
    131 H61        -3.6250    1.5290   -3.8870 ho        1 MOL      0.376513
    132 N12        -5.6760    4.5880   -1.0470 n         1 MOL     -0.280057
    133 C43        -6.9430    4.4690   -0.4400 c3        1 MOL     -0.001346
    134 C44        -7.5770    2.9850   -0.5890 c         1 MOL      0.421049
    135 O18        -8.2930    2.4800    0.3000 o         1 MOL     -0.497176
    136 C45        -7.8850    5.5040   -1.0820 c3        1 MOL     -0.160890
    137 H62        -5.5620    5.2210   -1.8350 hn        1 MOL      0.262995
    138 H63        -6.8500    4.6580    0.6280 h1        1 MOL      0.106339
    139 H64        -7.3980    6.4760   -1.1720 hc        1 MOL      0.061537
    140 H65        -8.1310    5.1610   -2.0840 hc        1 MOL      0.061537
    141 H66        -8.8600    5.7200   -0.6270 hc        1 MOL      0.061537
    142 N13        -7.3260    2.2350   -1.7090 n         1 MOL     -0.300681
    143 C46        -7.8600    0.9010   -2.0190 c3        1 MOL      0.051080
    144 C47        -7.1900   -0.1670   -1.1420 c         1 MOL      0.437848
    145 O19        -7.6720   -1.2990   -0.9420 o         1 MOL     -0.574792
    146 C48        -7.5310    0.7010   -3.4910 c3        1 MOL     -0.265539
    147 H67        -6.8030    2.6630   -2.4530 hn        1 MOL      0.257526
    148 H68        -8.9380    0.9130   -1.8410 h1        1 MOL      0.099889
    149 H69        -8.0550   -0.1920   -3.8000 hc        1 MOL      0.072456
    150 H70        -7.8350    1.5820   -4.0520 hc        1 MOL      0.072456
    151 H71        -6.4780    0.4480   -3.6180 hc        1 MOL      0.072456
    152 N14        -6.0280    0.2120   -0.6290 n         1 MOL     -0.012196
    153 C49        -5.2950   -0.4880    0.4100 c3        1 MOL      0.190222
    154 C50        -5.8860   -0.1680    1.7880 c         1 MOL      0.352710
    155 O20        -6.3670   -1.0890    2.4510 o         1 MOL     -0.538963
    156 C51        -3.7510   -0.3120    0.4070 c3        1 MOL      0.280830
    157 C52        -3.1300   -0.5950   -0.9190 c3        1 MOL      0.172574
    158 C53        -1.5700   -0.4360   -1.0810 c         1 MOL      0.732952
    159 O21        -1.0680    0.2680   -1.9870 o         1 MOL     -0.729697
    160 O22        -0.7840   -1.0680   -0.3760 o         1 MOL     -0.729697
    161 H72        -5.6810    1.1080   -0.9340 hn        1 MOL     -0.045959
    162 H73        -5.4870   -1.5310    0.1880 h1        1 MOL     -0.144410
    163 H74        -3.3690   -0.9080    1.2380 hc        1 MOL     -0.071276
    164 H75        -3.6250    0.7540    0.6140 hc        1 MOL     -0.071276
    165 H76        -3.7240   -0.0710   -1.6610 hc        1 MOL     -0.121287
    166 H77        -3.3800   -1.6350   -1.1470 hc        1 MOL     -0.121287
    167 N15        -6.0180    1.0910    2.1330 n         1 MOL     -0.034029
    168 C54        -6.6040    1.5170    3.3560 c3        1 MOL     -0.213921
    169 H78        -7.2170    0.7140    3.7640 h1        1 MOL      0.088776
    170 H79        -5.8180    1.7700    4.0670 h1        1 MOL      0.088776
    171 H80        -7.2270    2.3930    3.1750 h1        1 MOL      0.088776
    172 H81        -5.5910    1.8180    1.5730 hn        1 MOL      0.098366
    173 Ca1         1.4480   -0.6190   -1.4420 Ca        1 MOL      1.818390
    174 O23         2.8760   -0.5410   -4.2400 oh        1 MOL     -0.894575
    175 H82         2.9220   -1.4990   -4.2400 ho        1 MOL      0.418572
    176 H83         3.3960   -0.2780   -4.9990 ho        1 MOL      0.418572
    177 O24         0.0620   -2.0270   -3.5750 oh        1 MOL     -0.894575
    178 H84        -0.8280   -2.1990   -3.8600 ho        1 MOL      0.418572
    179 H85         0.6090   -2.5150   -4.1930 ho        1 MOL      0.418572
    180 O25         1.9950    1.6260   -2.7930 oh        1 MOL     -0.894575
    181 H86         1.9560    2.5400   -3.0630 ho        1 MOL      0.418572
    182 H87         2.3210    1.1600   -3.5590 ho        1 MOL      0.418572
@<TRIPOS>BOND
     1    1    2 1   
     2    1    4 1   
     3    1    5 1   
     4    1    6 1   
     5    2    3 2   
     6    2    7 1   
     7    7    8 1   
     8    7   15 1   
     9    8    9 1   
    10    8   11 1   
    11    8   16 1   
    12    9   10 2   
    13    9   19 1   
    14   11   12 1   
    15   11   17 1   
    16   11   18 1   
    17   12   13 1   
    18   12   14 1   
    19   19   20 1   
    20   19   28 1   
    21   20   21 1   
    22   20   23 1   
    23   20   29 1   
    24   21   22 2   
    25   21   41 1   
    26   23   24 1   
    27   23   30 1   
    28   23   31 1   
    29   24   25 1   
    30   24   32 1   
    31   24   33 1   
    32   25   26 1   
    33   25   34 1   
    34   25   35 1   
    35   26   27 1   
    36   26   36 1   
    37   26   37 1   
    38   27   38 1   
    39   27   39 1   
    40   27   40 1   
    41   41   42 1   
    42   41   49 1   
    43   42   43 1   
    44   42   45 1   
    45   42   50 1   
    46   43   44 2   
    47   43   53 1   
    48   45   46 1   
    49   45   51 1   
    50   45   52 1   
    51   46   47 1   
    52   46   48 1   
    53   53   54 1   
    54   53   57 1   
    55   54   55 1   
    56   54   58 1   
    57   54   59 1   
    58   55   56 2   
    59   55   60 1   
    60   60   61 1   
    61   60   68 1   
    62   61   62 1   
    63   61   64 1   
    64   61   69 1   
    65   62   63 2   
    66   62   74 1   
    67   64   65 1   
    68   64   70 1   
    69   64   71 1   
    70   65   66 1   
    71   65   67 2   
    72   66   72 1   
    73   66   73 1   
    74   74   75 1   
    75   74   78 1   
    76   75   76 1   
    77   75   79 1   
    78   75   80 1   
    79   76   77 2   
    80   76   81 1   
    81   81   82 1   
    82   81   93 1   
    83   82   83 1   
    84   82   85 1   
    85   82   94 1   
    86   83   84 2   
    87   83  102 1   
    88   85   86 1   
    89   85   95 1   
    90   85   96 1   
    91   86   87 ar  
    92   86   88 ar  
    93   87   89 ar  
    94   87   97 1   
    95   88   90 ar  
    96   88   98 1   
    97   89   91 ar  
    98   89   99 1   
    99   90   91 ar  
   100   90  100 1   
   101   91   92 1   
   102   92  101 1   
   103  102  103 1   
   104  102  110 1   
   105  103  104 1   
   106  103  106 1   
   107  103  111 1   
   108  104  105 2   
   109  104  121 1   
   110  106  107 1   
   111  106  108 1   
   112  106  112 1   
   113  107  109 1   
   114  107  113 1   
   115  107  114 1   
   116  108  115 1   
   117  108  116 1   
   118  108  117 1   
   119  109  118 1   
   120  109  119 1   
   121  109  120 1   
   122  121  122 1   
   123  121  127 1   
   124  122  123 1   
   125  122  125 1   
   126  122  128 1   
   127  123  124 2   
   128  123  132 1   
   129  125  126 1   
   130  125  129 1   
   131  125  130 1   
   132  126  131 1   
   133  132  133 1   
   134  132  137 1   
   135  133  134 1   
   136  133  136 1   
   137  133  138 1   
   138  134  135 2   
   139  134  142 1   
   140  136  139 1   
   141  136  140 1   
   142  136  141 1   
   143  142  143 1   
   144  142  147 1   
   145  143  144 1   
   146  143  146 1   
   147  143  148 1   
   148  144  145 2   
   149  144  152 1   
   150  146  149 1   
   151  146  150 1   
   152  146  151 1   
   153  152  153 1   
   154  152  161 1   
   155  153  154 1   
   156  153  156 1   
   157  153  162 1   
   158  154  155 2   
   159  154  167 1   
   160  156  157 1   
   161  156  163 1   
   162  156  164 1   
   163  157  158 1   
   164  157  165 1   
   165  157  166 1   
   166  158  159 1   
   167  158  160 1   
   168  167  168 1   
   169  167  172 1   
   170  168  169 1   
   171  168  170 1   
   172  168  171 1   
   173  174  175 1   
   174  174  176 1   
   175  177  178 1   
   176  177  179 1   
   177  180  181 1   
   178  180  182 1   
@<TRIPOS>SUBSTRUCTURE
     1 MOL         1 TEMP              0 ****  ****    0 ROOT
