@<TRIPOS>MOLECULE
MOL
  186   183     1     0     0
SMALL
resp


@<TRIPOS>ATOM
      1 C1          1.1330   -2.5300    6.2190 c3        1 MOL     -0.401652
      2 C2          1.4130   -2.3130    4.7210 c         1 MOL      0.747881
      3 O1          0.5160   -2.6110    3.9400 o         1 MOL     -0.582736
      4 H1          0.1340   -2.1660    6.4580 hc        1 MOL      0.094216
      5 H2          1.1960   -3.5940    6.4500 hc        1 MOL      0.094216
      6 H3          1.8690   -1.9850    6.8100 hc        1 MOL      0.094216
      7 N1          2.6020   -1.7650    4.3700 n         1 MOL     -0.632550
      8 C3          3.1150   -1.6860    3.0370 c3        1 MOL      0.348927
      9 C4          3.7890   -2.9380    2.5280 c         1 MOL      0.282811
     10 O2          4.9670   -3.3610    2.7690 o         1 MOL     -0.565318
     11 C5          4.0860   -0.4960    2.9550 c3        1 MOL     -0.333810
     12 C6          4.5430   -0.3480    1.4870 c         1 MOL      0.766991
     13 O3          5.4560    0.4260    1.2300 o         1 MOL     -0.657162
     14 O4          3.9280   -0.9160    0.5580 o         1 MOL     -0.657162
     15 H4          3.2900   -1.5730    5.0770 hn        1 MOL      0.308941
     16 H5          2.2610   -1.4490    2.4010 h1        1 MOL      0.018316
     17 H6          4.9790   -0.6200    3.5650 hc        1 MOL      0.070299
     18 H7          3.5810    0.4180    3.2710 hc        1 MOL      0.070299
     19 N2          2.9280   -3.5710    1.7520 n         1 MOL      0.000368
     20 C7          3.1060   -4.9120    1.1630 c3        1 MOL     -0.321302
     21 C8          3.6400   -4.9340   -0.2500 c         1 MOL      0.368635
     22 O5          3.5740   -6.0450   -0.8310 o         1 MOL     -0.547439
     23 C9          1.8590   -5.8200    1.5170 c3        1 MOL      0.339552
     24 C10         0.6150   -5.1710    0.8920 c3        1 MOL      0.039005
     25 C11         1.6770   -6.1370    3.0020 c3        1 MOL     -0.252960
     26 C12        -0.5920   -6.1140    0.8750 c3        1 MOL     -0.545280
     27 H8          2.1180   -3.0420    1.4590 hn        1 MOL      0.106552
     28 H9          3.9010   -5.3760    1.7410 h1        1 MOL      0.151577
     29 H10         1.9710   -6.7980    1.0420 hc        1 MOL     -0.049824
     30 H11         0.7790   -4.9470   -0.1660 hc        1 MOL      0.111236
     31 H12         0.3370   -4.2210    1.3520 hc        1 MOL      0.111236
     32 H13         1.3400   -5.2090    3.4720 hc        1 MOL      0.034143
     33 H14         0.8750   -6.8620    3.1760 hc        1 MOL      0.034143
     34 H15         2.6270   -6.3770    3.4620 hc        1 MOL      0.034143
     35 H16        -0.8060   -6.2360    1.9320 hc        1 MOL      0.128009
     36 H17        -1.4240   -5.6320    0.3590 hc        1 MOL      0.128009
     37 H18        -0.3550   -7.0440    0.3570 hc        1 MOL      0.128009
     38 N3          4.1720   -3.8950   -0.8770 n         1 MOL     -0.015548
     39 C13         5.1120   -3.9830   -1.9950 c3        1 MOL      0.106390
     40 C14         6.3490   -3.1550   -1.7520 c         1 MOL      0.284858
     41 O6          7.3830   -3.4030   -2.4250 o         1 MOL     -0.529301
     42 C15         4.4390   -3.5290   -3.3170 c3        1 MOL     -0.366600
     43 C16         3.6650   -2.1860   -3.0990 c         1 MOL      0.734904
     44 O7          2.3810   -2.1750   -3.3310 o         1 MOL     -0.695074
     45 O8          4.1530   -1.1750   -2.5310 o         1 MOL     -0.695074
     46 H19         4.1250   -2.9430   -0.5330 hn        1 MOL      0.002640
     47 H20         5.3980   -5.0290   -2.0820 h1        1 MOL      0.073635
     48 H21         3.8510   -4.3620   -3.6860 hc        1 MOL      0.107657
     49 H22         5.2260   -3.2750   -4.0230 hc        1 MOL      0.107657
     50 N4          6.3930   -2.1860   -0.8270 n         1 MOL     -0.075786
     51 C17         7.6260   -1.5160   -0.4430 c3        1 MOL     -0.258771
     52 C18         7.9080   -0.2120   -1.2370 c         1 MOL      0.574048
     53 O9          9.0460    0.1040   -1.5380 o         1 MOL     -0.620728
     54 H23         5.5050   -1.9270   -0.4080 hn        1 MOL      0.178451
     55 H24         8.4310   -2.2230   -0.5850 h1        1 MOL      0.113665
     56 H25         7.5090   -1.1990    0.5950 h1        1 MOL      0.113665
     57 N5          6.9270    0.5440   -1.6350 n         1 MOL     -0.182277
     58 C19         7.0530    1.9180   -2.1200 c3        1 MOL     -0.076402
     59 C20         7.0740    2.9600   -1.0270 c         1 MOL      0.545350
     60 O10         7.3310    4.1160   -1.3130 o         1 MOL     -0.596709
     61 C21         5.8920    2.2360   -3.1420 c3        1 MOL     -0.199649
     62 C22         4.5020    1.9520   -2.5830 c         1 MOL      0.793851
     63 O11         4.2500    2.0040   -1.3590 o         1 MOL     -0.784033
     64 O12         3.5350    1.5810   -3.3270 o         1 MOL     -0.784033
     65 H26         6.0310    0.1840   -1.3600 hn        1 MOL      0.180252
     66 H27         8.0660    2.0800   -2.5190 h1        1 MOL      0.095128
     67 H28         6.0020    1.6640   -4.0630 hc        1 MOL      0.059504
     68 H29         5.9230    3.2740   -3.4800 hc        1 MOL      0.059504
     69 N6          6.7410    2.6190    0.2060 n         1 MOL     -0.298758
     70 C23         6.6700    3.6150    1.2880 c3        1 MOL     -0.191715
     71 C24         5.2850    4.2410    1.6680 c         1 MOL      0.550910
     72 O13         5.1920    5.1240    2.4800 o         1 MOL     -0.586956
     73 H30         6.3760    1.6890    0.4000 hn        1 MOL      0.216996
     74 H31         7.3390    4.4540    1.1320 h1        1 MOL      0.093401
     75 H32         6.9540    3.0650    2.1940 h1        1 MOL      0.093401
     76 N7          4.2320    3.6570    1.0600 n         1 MOL     -0.250303
     77 C25         2.8750    4.1410    1.3440 c3        1 MOL     -0.136711
     78 C26         1.9220    2.8750    1.4140 c         1 MOL      0.645624
     79 O14         2.1410    1.8150    0.8410 o         1 MOL     -0.691218
     80 C27         2.4890    5.0200    0.2060 c3        1 MOL      0.123804
     81 C28         3.2830    6.3190    0.2090 c3        1 MOL     -0.188388
     82 C29         2.5240    7.4220   -0.4270 c         1 MOL      0.514542
     83 N8          2.5880    7.5360   -1.7190 n         1 MOL     -0.701489
     84 O15         1.6630    8.0580    0.2400 o         1 MOL     -0.568444
     85 H33         4.2840    2.8230    0.5030 hn        1 MOL      0.262752
     86 H34         2.7870    4.6510    2.3020 h1        1 MOL      0.095764
     87 H35         1.4510    5.2560    0.4400 hc        1 MOL      0.031574
     88 H36         2.5530    4.6920   -0.8310 hc        1 MOL      0.031574
     89 H37         4.2430    6.1630   -0.2950 hc        1 MOL      0.074369
     90 H38         3.4970    6.6920    1.2090 hc        1 MOL      0.074369
     91 H39         3.3110    7.0260   -2.2160 hn        1 MOL      0.341470
     92 H40         2.1230    8.3350   -2.1170 hn        1 MOL      0.341470
     93 N9          0.7730    2.9930    2.1180 n         1 MOL     -0.487052
     94 C30        -0.4410    2.1460    2.1620 c3        1 MOL      0.272615
     95 C31        -1.3900    2.7650    1.0770 c         1 MOL      0.337706
     96 O16        -1.5150    3.9730    0.9750 o         1 MOL     -0.551304
     97 C32        -1.1670    2.3770    3.5910 c3        1 MOL      0.218800
     98 C33        -2.3600    1.4980    3.9390 c3        1 MOL     -0.325058
     99 C34        -0.0580    2.1840    4.7100 c3        1 MOL     -0.325058
    100 H41         0.5590    3.9330    2.3990 hn        1 MOL      0.240376
    101 H42        -0.2720    1.0740    2.0910 h1        1 MOL      0.095343
    102 H43        -1.5060    3.4120    3.6790 hc        1 MOL     -0.036697
    103 H44        -2.5760    1.6640    4.9950 hc        1 MOL      0.064871
    104 H45        -3.1970    1.7800    3.2930 hc        1 MOL      0.064871
    105 H46        -2.1170    0.4420    3.8400 hc        1 MOL      0.064871
    106 H47         0.7220    2.9440    4.6570 hc        1 MOL      0.064871
    107 H48        -0.5350    2.2780    5.6860 hc        1 MOL      0.064871
    108 H49         0.3350    1.1770    4.5940 hc        1 MOL      0.064871
    109 N10        -1.9470    1.8510    0.2220 n         1 MOL     -0.012845
    110 C35        -2.9970    2.2070   -0.7310 c3        1 MOL     -0.028459
    111 C36        -4.3960    2.0060   -0.0710 c         1 MOL      0.469836
    112 O17        -4.4410    1.3530    0.9990 o         1 MOL     -0.408727
    113 C37        -2.7520    1.4700   -2.0580 c3        1 MOL     -0.342521
    114 C38        -3.8550    1.7410   -3.1380 c         1 MOL      0.694787
    115 N11        -3.7580    2.8810   -3.7700 n         1 MOL     -0.746657
    116 O18        -4.8160    1.0280   -3.4230 o         1 MOL     -0.554927
    117 H50        -1.5940    0.9060    0.2980 hn        1 MOL      0.168758
    118 H51        -2.9960    3.2740   -0.9480 h1        1 MOL      0.058954
    119 H52        -2.7380    0.3980   -1.8810 hc        1 MOL      0.142698
    120 H53        -1.8280    1.7660   -2.5560 hc        1 MOL      0.142698
    121 H54        -3.1630    3.6190   -3.4400 hn        1 MOL      0.347961
    122 H55        -4.4210    3.0750   -4.5150 hn        1 MOL      0.347961
    123 N12        -5.5270    2.3670   -0.6960 n         1 MOL     -0.555010
    124 C39        -6.8090    1.8010   -0.1550 c3        1 MOL      0.224009
    125 C40        -6.9060    0.2260   -0.3020 c         1 MOL      0.549464
    126 O19        -7.3280   -0.4960    0.6130 o         1 MOL     -0.552332
    127 C41        -7.8540    2.5960   -0.8750 c3        1 MOL     -0.139332
    128 C42        -9.2490    2.1240   -0.5320 ca        1 MOL     -0.064859
    129 C43        -9.7950    2.7080    0.6410 ca        1 MOL     -0.139238
    130 C44        -9.9850    1.1230   -1.2530 ca        1 MOL     -0.139238
    131 C45       -11.1110    2.2500    1.0550 ca        1 MOL     -0.243552
    132 C46       -11.3390    0.7650   -0.8680 ca        1 MOL     -0.243552
    133 C47       -11.9070    1.3440    0.2660 ca        1 MOL      0.321463
    134 O20       -13.2590    1.1980    0.5530 oh        1 MOL     -0.518578
    135 H56        -5.5510    2.6470   -1.6630 hn        1 MOL      0.265787
    136 H57        -6.8890    2.0510    0.9010 h1        1 MOL      0.068388
    137 H58        -7.6540    2.4020   -1.9260 hc        1 MOL      0.067704
    138 H59        -7.6630    3.6570   -0.6980 hc        1 MOL      0.067704
    139 H60        -9.1750    3.3880    1.1870 ha        1 MOL      0.135582
    140 H61        -9.4810    0.7430   -2.1350 ha        1 MOL      0.135582
    141 H62       -11.5000    2.6770    1.9740 ha        1 MOL      0.135889
    142 H63       -11.9310    0.1100   -1.4910 ha        1 MOL      0.135889
    143 H64       -13.5510    0.5090   -0.0420 ho        1 MOL      0.368564
    144 N13        -6.3860   -0.3990   -1.3270 n         1 MOL     -0.432871
    145 C48        -6.2450   -1.8260   -1.5250 c3        1 MOL      0.146268
    146 C49        -5.4230   -2.4880   -0.3390 c         1 MOL      0.265837
    147 O21        -5.7480   -3.5990    0.0180 o         1 MOL     -0.505501
    148 C50        -5.5040   -2.0900   -2.8380 c3        1 MOL     -0.027061
    149 C51        -5.6320   -3.6010   -3.2630 c3        1 MOL     -0.436645
    150 C52        -4.7260   -3.8310   -4.5020 c         1 MOL      0.779856
    151 O22        -3.5110   -4.0380   -4.3460 o         1 MOL     -0.743446
    152 O23        -5.2280   -3.9400   -5.6910 o         1 MOL     -0.743446
    153 H65        -5.9380    0.1600   -2.0340 hn        1 MOL      0.227429
    154 H66        -7.1910   -2.3370   -1.6710 h1        1 MOL      0.073352
    155 H67        -4.4410   -1.8760   -2.7410 hc        1 MOL      0.038506
    156 H68        -5.9500   -1.5200   -3.6520 hc        1 MOL      0.038506
    157 H69        -6.5980   -4.0820   -3.3910 hc        1 MOL      0.099726
    158 H70        -5.2210   -4.1740   -2.4390 hc        1 MOL      0.099726
    159 N14        -4.3970   -1.8020    0.1820 n         1 MOL     -0.025517
    160 C53        -3.6260   -2.2070    1.4040 c3        1 MOL     -0.122074
    161 C54        -4.5120   -1.8670    2.6680 c         1 MOL      0.490823
    162 O24        -4.3150   -2.4980    3.6700 o         1 MOL     -0.580913
    163 C55        -2.2280   -1.5240    1.3970 c3        1 MOL      0.069414
    164 C56        -1.3800   -2.1460    0.2150 c3        1 MOL     -0.352117
    165 C57         0.0300   -1.5560   -0.0100 c         1 MOL      0.747425
    166 O25         1.0260   -2.2560   -0.2530 o         1 MOL     -0.747745
    167 O26         0.1290   -0.2920   -0.0050 o         1 MOL     -0.747745
    168 H71        -4.2820   -0.8980   -0.2440 hn        1 MOL      0.106440
    169 H72        -3.5390   -3.2890    1.2980 h1        1 MOL      0.121218
    170 H73        -1.6880   -1.6780    2.3400 hc        1 MOL      0.033162
    171 H74        -2.2670   -0.4530    1.1930 hc        1 MOL      0.033162
    172 H75        -1.9490   -1.9680   -0.6880 hc        1 MOL      0.104818
    173 H76        -1.3380   -3.2210    0.4270 hc        1 MOL      0.104818
    174 N15        -5.3280   -0.7970    2.6730 n         1 MOL     -0.008113
    175 C58        -6.2050   -0.4730    3.8160 c3        1 MOL     -0.292331
    176 H77        -6.9540    0.2550    3.5050 h1        1 MOL      0.097298
    177 H78        -6.7030   -1.3800    4.1610 h1        1 MOL      0.097298
    178 H79        -5.6080   -0.0560    4.6270 h1        1 MOL      0.097298
    179 H80        -5.2810   -0.2900    1.8030 hn        1 MOL      0.024607
    180 Ca1         2.3750    0.1070   -1.1650 Ca        1 MOL      1.788436
    181 O27         0.5880   -0.2760   -3.4300 oh        1 MOL     -0.901341
    182 H81        -0.2330   -0.6900   -3.7000 ho        1 MOL      0.425073
    183 H82         1.2440   -0.9660   -3.5520 ho        1 MOL      0.425073
    184 O28         0.8890    2.1490   -2.0410 oh        1 MOL     -0.901341
    185 H83         1.5430    2.7470   -2.4070 ho        1 MOL      0.425073
    186 H84         0.6430    1.5940   -2.7780 ho        1 MOL      0.425073
@<TRIPOS>BOND
     1    1    2 1   
     2    1    4 1   
     3    1    5 1   
     4    1    6 1   
     5    2    3 2   
     6    2    7 1   
     7    7    8 1   
     8    7   15 1   
     9    8    9 1   
    10    8   11 1   
    11    8   16 1   
    12    9   10 2   
    13    9   19 1   
    14   11   12 1   
    15   11   17 1   
    16   11   18 1   
    17   12   13 1   
    18   12   14 1   
    19   19   20 1   
    20   19   27 1   
    21   20   21 1   
    22   20   23 1   
    23   20   28 1   
    24   21   22 2   
    25   21   38 1   
    26   23   24 1   
    27   23   25 1   
    28   23   29 1   
    29   24   26 1   
    30   24   30 1   
    31   24   31 1   
    32   25   32 1   
    33   25   33 1   
    34   25   34 1   
    35   26   35 1   
    36   26   36 1   
    37   26   37 1   
    38   38   39 1   
    39   38   46 1   
    40   39   40 1   
    41   39   42 1   
    42   39   47 1   
    43   40   41 2   
    44   40   50 1   
    45   42   43 1   
    46   42   48 1   
    47   42   49 1   
    48   43   44 1   
    49   43   45 1   
    50   50   51 1   
    51   50   54 1   
    52   51   52 1   
    53   51   55 1   
    54   51   56 1   
    55   52   53 2   
    56   52   57 1   
    57   57   58 1   
    58   57   65 1   
    59   58   59 1   
    60   58   61 1   
    61   58   66 1   
    62   59   60 2   
    63   59   69 1   
    64   61   62 1   
    65   61   67 1   
    66   61   68 1   
    67   62   63 1   
    68   62   64 1   
    69   69   70 1   
    70   69   73 1   
    71   70   71 1   
    72   70   74 1   
    73   70   75 1   
    74   71   72 2   
    75   71   76 1   
    76   76   77 1   
    77   76   85 1   
    78   77   78 1   
    79   77   80 1   
    80   77   86 1   
    81   78   79 2   
    82   78   93 1   
    83   80   81 1   
    84   80   87 1   
    85   80   88 1   
    86   81   82 1   
    87   81   89 1   
    88   81   90 1   
    89   82   83 1   
    90   82   84 2   
    91   83   91 1   
    92   83   92 1   
    93   93   94 1   
    94   93  100 1   
    95   94   95 1   
    96   94   97 1   
    97   94  101 1   
    98   95   96 2   
    99   95  109 1   
   100   97   98 1   
   101   97   99 1   
   102   97  102 1   
   103   98  103 1   
   104   98  104 1   
   105   98  105 1   
   106   99  106 1   
   107   99  107 1   
   108   99  108 1   
   109  109  110 1   
   110  109  117 1   
   111  110  111 1   
   112  110  113 1   
   113  110  118 1   
   114  111  112 2   
   115  111  123 1   
   116  113  114 1   
   117  113  119 1   
   118  113  120 1   
   119  114  115 1   
   120  114  116 2   
   121  115  121 1   
   122  115  122 1   
   123  123  124 1   
   124  123  135 1   
   125  124  125 1   
   126  124  127 1   
   127  124  136 1   
   128  125  126 2   
   129  125  144 1   
   130  127  128 1   
   131  127  137 1   
   132  127  138 1   
   133  128  129 ar  
   134  128  130 ar  
   135  129  131 ar  
   136  129  139 1   
   137  130  132 ar  
   138  130  140 1   
   139  131  133 ar  
   140  131  141 1   
   141  132  133 ar  
   142  132  142 1   
   143  133  134 1   
   144  134  143 1   
   145  144  145 1   
   146  144  153 1   
   147  145  146 1   
   148  145  148 1   
   149  145  154 1   
   150  146  147 2   
   151  146  159 1   
   152  148  149 1   
   153  148  155 1   
   154  148  156 1   
   155  149  150 1   
   156  149  157 1   
   157  149  158 1   
   158  150  151 1   
   159  150  152 1   
   160  159  160 1   
   161  159  168 1   
   162  160  161 1   
   163  160  163 1   
   164  160  169 1   
   165  161  162 2   
   166  161  174 1   
   167  163  164 1   
   168  163  170 1   
   169  163  171 1   
   170  164  165 1   
   171  164  172 1   
   172  164  173 1   
   173  165  166 1   
   174  165  167 1   
   175  174  175 1   
   176  174  179 1   
   177  175  176 1   
   178  175  177 1   
   179  175  178 1   
   180  181  182 1   
   181  181  183 1   
   182  184  185 1   
   183  184  186 1   
@<TRIPOS>SUBSTRUCTURE
     1 MOL         1 TEMP              0 ****  ****    0 ROOT
