@<TRIPOS>MOLECULE
MOL
  186   183     1     0     0
SMALL
resp


@<TRIPOS>ATOM
      1 C1         -1.0550    3.1910    6.0400 c3        1 MOL     -0.397744
      2 C2         -1.0940    2.7070    4.5620 c         1 MOL      0.753339
      3 O1         -0.0650    2.7480    3.8800 o         1 MOL     -0.657064
      4 H1         -1.0930    4.2800    6.0660 hc        1 MOL      0.102325
      5 H2         -1.9110    2.7840    6.5790 hc        1 MOL      0.102325
      6 H3         -0.1340    2.8490    6.5100 hc        1 MOL      0.102325
      7 N1         -2.2320    2.3120    4.0310 n         1 MOL     -0.564900
      8 C3         -2.5850    2.0570    2.6500 c3        1 MOL      0.047521
      9 C4         -2.5430    3.3610    1.8940 c         1 MOL      0.487159
     10 O2         -3.4660    4.1810    1.9360 o         1 MOL     -0.572679
     11 C5         -3.9420    1.3210    2.5370 c3        1 MOL      0.102666
     12 C6         -4.2720    0.8340    1.1260 c         1 MOL      0.693146
     13 O3         -3.5210    1.2150    0.2120 o         1 MOL     -0.723420
     14 O4         -5.2460    0.0390    0.8770 o         1 MOL     -0.723420
     15 H4         -2.9070    2.0510    4.7350 hn        1 MOL      0.301321
     16 H5         -1.8630    1.3440    2.2310 h1        1 MOL      0.038077
     17 H6         -4.7540    1.9260    2.9510 hc        1 MOL     -0.022032
     18 H7         -3.9340    0.4560    3.2020 hc        1 MOL     -0.022032
     19 N2         -1.5300    3.5850    1.0700 n         1 MOL     -0.045733
     20 C7         -1.2860    4.8690    0.3390 c3        1 MOL     -0.259527
     21 C8         -2.2780    5.1680   -0.7190 c         1 MOL      0.665487
     22 O5         -2.2910    6.3640   -1.1370 o         1 MOL     -0.591975
     23 C9          0.1500    4.8360   -0.2220 c3        1 MOL     -0.017635
     24 C10         1.0790    5.1890    0.9030 c3        1 MOL      0.067142
     25 C11         2.5190    5.3270    0.3340 c3        1 MOL     -0.091093
     26 C12         3.4520    5.9010    1.3500 c3        1 MOL     -0.018845
     27 N3          4.8070    5.4590    1.0590 n4        1 MOL     -0.262883
     28 H8         -0.8840    2.8110    0.9420 hn        1 MOL      0.057993
     29 H9         -1.3380    5.6060    1.1400 h1        1 MOL      0.119537
     30 H10         0.2400    5.5930   -1.0020 hc        1 MOL      0.037857
     31 H11         0.4460    3.9370   -0.7570 hc        1 MOL      0.037857
     32 H12         1.1210    4.3780    1.6210 hc        1 MOL      0.025041
     33 H13         0.7750    6.0920    1.4200 hc        1 MOL      0.025041
     34 H14         2.5600    5.9440   -0.5680 hc        1 MOL      0.041178
     35 H15         2.7800    4.2880    0.0990 hc        1 MOL      0.041178
     36 H16         3.2450    5.5550    2.3690 hx        1 MOL      0.090421
     37 H17         3.4380    6.9920    1.3250 hx        1 MOL      0.090421
     38 H18         5.5140    5.5070    1.7780 hn        1 MOL      0.285265
     39 H19         4.9130    4.5030    0.7690 hn        1 MOL      0.285265
     40 H20         5.2130    5.9730    0.2910 hn        1 MOL      0.285265
     41 N4         -3.0340    4.1290   -1.1700 n         1 MOL     -0.449008
     42 C13        -3.8350    4.1770   -2.4430 c3        1 MOL      0.095801
     43 C14        -5.3040    3.5500   -2.1980 c         1 MOL      0.376592
     44 O6         -6.1620    3.7420   -3.0050 o         1 MOL     -0.510524
     45 C15        -3.0000    3.4280   -3.4410 c3        1 MOL     -0.242975
     46 C16        -2.4050    2.0880   -3.0560 c         1 MOL      0.858712
     47 O7         -3.2100    1.2250   -2.8020 o         1 MOL     -0.801535
     48 O8         -1.1730    1.9060   -2.9490 o         1 MOL     -0.801535
     49 H21        -2.7210    3.2070   -0.8960 hn        1 MOL      0.227413
     50 H22        -3.8690    5.2290   -2.7150 h1        1 MOL      0.096047
     51 H23        -2.2490    4.1520   -3.7360 hc        1 MOL      0.053777
     52 H24        -3.6230    3.2760   -4.3240 hc        1 MOL      0.053777
     53 N5         -5.5750    2.8670   -1.0580 n         1 MOL     -0.171148
     54 C17        -6.9070    2.3870   -0.7190 c3        1 MOL     -0.164077
     55 C18        -7.2610    1.0350   -1.3370 c         1 MOL      0.513335
     56 O9         -8.4290    0.7460   -1.5600 o         1 MOL     -0.596312
     57 H25        -4.7430    2.7170   -0.4980 hn        1 MOL      0.143817
     58 H26        -7.6460    3.1360   -0.9920 h1        1 MOL      0.110104
     59 H27        -6.9000    2.4160    0.3660 h1        1 MOL      0.110104
     60 N6         -6.3650    0.1660   -1.7830 n         1 MOL     -0.178045
     61 C19        -6.7110   -1.0220   -2.5480 c3        1 MOL      0.038448
     62 C20        -7.0050   -2.2770   -1.6640 c         1 MOL      0.397677
     63 O10        -7.3850   -3.3340   -2.1350 o         1 MOL     -0.524121
     64 C21        -5.5770   -1.4240   -3.4930 c3        1 MOL     -0.338706
     65 C22        -4.2100   -1.6100   -2.8640 c         1 MOL      0.958837
     66 O11        -4.1240   -1.8520   -1.6760 o         1 MOL     -0.748776
     67 O12        -3.1110   -1.5360   -3.4580 o         1 MOL     -0.748776
     68 H28        -5.4170    0.1690   -1.4340 hn        1 MOL      0.260570
     69 H29        -7.6110   -0.8890   -3.1470 h1        1 MOL      0.112430
     70 H30        -5.5270   -0.5780   -4.1780 hc        1 MOL      0.085127
     71 H31        -5.8320   -2.3100   -4.0730 hc        1 MOL      0.085127
     72 N7         -6.7390   -2.1170   -0.3660 n         1 MOL     -0.218503
     73 C23        -6.9140   -3.1970    0.6390 c3        1 MOL     -0.183807
     74 C24        -5.6530   -3.8720    1.0930 c         1 MOL      0.540062
     75 O13        -5.7030   -4.7730    1.9570 o         1 MOL     -0.614332
     76 H32        -6.3170   -1.2580   -0.0490 hn        1 MOL      0.223353
     77 H33        -7.6480   -3.8980    0.2450 h1        1 MOL      0.107291
     78 H34        -7.3330   -2.6570    1.4970 h1        1 MOL      0.107291
     79 N8         -4.4940   -3.5200    0.6020 n         1 MOL     -0.177116
     80 C25        -3.1620   -4.1660    0.9950 c3        1 MOL     -0.277692
     81 C26        -2.0820   -3.1680    1.3090 c         1 MOL      0.692475
     82 O14        -2.0660   -2.0240    0.8430 o         1 MOL     -0.797142
     83 C27        -2.7260   -5.1490   -0.0400 c3        1 MOL      0.439173
     84 C28        -3.5350   -6.4080   -0.1220 c3        1 MOL     -0.448757
     85 O15        -2.8920   -4.5680   -1.3950 oh        1 MOL     -0.578622
     86 H35        -4.5430   -2.8170   -0.1260 hn        1 MOL      0.300640
     87 H36        -3.2540   -4.7840    1.8870 h1        1 MOL      0.131422
     88 H37        -1.6650   -5.3460    0.1540 h1        1 MOL     -0.021634
     89 H38        -3.4070   -3.7900   -1.1580 ho        1 MOL      0.292541
     90 H39        -3.3830   -7.0040    0.7850 hc        1 MOL      0.119456
     91 H40        -4.5730   -6.1570   -0.3490 hc        1 MOL      0.119456
     92 H41        -3.2980   -7.0500   -0.9770 hc        1 MOL      0.119456
     93 N9         -1.1400   -3.5320    2.1280 n         1 MOL     -0.328243
     94 C29         0.0560   -2.7980    2.3950 c3        1 MOL     -0.018084
     95 C30         1.1840   -3.5450    1.6660 c         1 MOL      0.606219
     96 O16         1.1060   -4.7890    1.4960 o         1 MOL     -0.579983
     97 C31         0.3720   -2.5800    3.8740 c3        1 MOL      0.035413
     98 C32        -0.2400   -1.3440    4.5660 c3        1 MOL     -0.164991
     99 C33         1.9120   -2.4740    4.2310 c3        1 MOL     -0.222211
    100 C34        -1.6220   -1.0830    4.1750 c3        1 MOL      0.008770
    101 H42        -1.2560   -4.4800    2.4600 hn        1 MOL      0.224527
    102 H43        -0.0940   -1.7980    2.0070 h1        1 MOL      0.178643
    103 H44         0.0030   -3.4580    4.3960 hc        1 MOL      0.039922
    104 H45         0.2230   -0.4300    4.1890 hc        1 MOL      0.063175
    105 H46        -0.1470   -1.5680    5.6310 hc        1 MOL      0.063175
    106 H47         2.3020   -1.6420    3.6440 hc        1 MOL      0.052535
    107 H48         2.1330   -2.4180    5.3010 hc        1 MOL      0.052535
    108 H49         2.3830   -3.4010    3.9350 hc        1 MOL      0.052535
    109 H50        -1.5700   -0.5410    3.2280 hc        1 MOL      0.002223
    110 H51        -2.1560   -2.0110    3.9500 hc        1 MOL      0.002223
    111 H52        -2.1360   -0.4750    4.9130 hc        1 MOL      0.002223
    112 N10         2.1680   -2.8720    1.1050 n         1 MOL     -0.348492
    113 C35         3.1240   -3.4330    0.1280 c3        1 MOL      0.040418
    114 C36         4.5220   -2.8160    0.3410 c         1 MOL      0.341313
    115 O17         4.7560   -1.9710    1.2030 o         1 MOL     -0.415386
    116 C37         2.5740   -3.0500   -1.2860 c3        1 MOL      0.261626
    117 C38         1.2880   -3.6470   -1.8170 c3        1 MOL     -0.433381
    118 O18         2.6060   -1.6660   -1.5130 oh        1 MOL     -0.629572
    119 H53         2.1620   -1.8660    1.0460 hn        1 MOL      0.123333
    120 H54         3.2150   -4.5270    0.1840 h1        1 MOL      0.086724
    121 H55         3.3490   -3.3840   -1.9810 h1        1 MOL      0.005965
    122 H56         1.8460   -1.2160   -1.1360 ho        1 MOL      0.391376
    123 H57         1.1180   -4.6670   -1.4770 hc        1 MOL      0.129214
    124 H58         0.4250   -3.0340   -1.5570 hc        1 MOL      0.129214
    125 H59         1.3650   -3.7120   -2.9030 hc        1 MOL      0.129214
    126 N11         5.4940   -3.2680   -0.4390 n         1 MOL     -0.228478
    127 C39         6.8790   -2.7420   -0.4650 c3        1 MOL      0.045604
    128 C40         7.1320   -1.2520   -0.2860 c         1 MOL      0.330554
    129 O19         7.9680   -0.8160    0.4170 o         1 MOL     -0.508236
    130 C41         7.5160   -3.1000   -1.8340 c3        1 MOL      0.143762
    131 C42         7.6580   -4.6100   -2.1560 c3        1 MOL     -0.570384
    132 O20         6.6470   -2.6170   -2.8850 oh        1 MOL     -0.620578
    133 H60         5.2980   -4.1040   -0.9670 hn        1 MOL      0.221745
    134 H61         7.5010   -3.3220    0.2170 h1        1 MOL      0.097691
    135 H62         8.4690   -2.5790   -1.9420 h1        1 MOL      0.078497
    136 H63         7.1080   -2.7970   -3.7030 ho        1 MOL      0.429009
    137 H64         8.0950   -4.7910   -3.1430 hc        1 MOL      0.174944
    138 H65         8.0200   -5.1390   -1.2740 hc        1 MOL      0.174944
    139 H66         6.6860   -5.0630   -2.3380 hc        1 MOL      0.174944
    140 N12         6.3300   -0.4100   -0.9250 n         1 MOL      0.006409
    141 C43         6.3200    1.0410   -0.9260 c3        1 MOL     -0.149916
    142 C44         5.4830    1.5900    0.2750 c         1 MOL      0.524388
    143 O21         5.4000    2.8280    0.3390 o         1 MOL     -0.641192
    144 C45         5.6730    1.4900   -2.2790 c3        1 MOL     -0.118682
    145 C46         6.3000    0.9510   -3.5490 c3        1 MOL     -0.264710
    146 C47         7.7720    1.4250   -3.7970 c3        1 MOL     -0.040556
    147 C48         8.2750    1.1880   -5.3010 c3        1 MOL      0.063734
    148 N13         9.7370    1.5860   -5.4040 n4        1 MOL     -0.253938
    149 H67         5.6050   -0.7790   -1.5180 hn        1 MOL      0.224440
    150 H68         7.3260    1.4750   -0.9100 h1        1 MOL      0.103840
    151 H69         5.7420    2.5730   -2.2770 hc        1 MOL      0.107183
    152 H70         4.6570    1.1050   -2.3690 hc        1 MOL      0.107183
    153 H71         5.8130    1.5200   -4.3410 hc        1 MOL      0.100523
    154 H72         6.2940   -0.1360   -3.6270 hc        1 MOL      0.100523
    155 H73         8.4070    0.8320   -3.1470 hc        1 MOL      0.047731
    156 H74         7.8390    2.4960   -3.5830 hc        1 MOL      0.047731
    157 H75         7.6220    1.6740   -6.0240 hx        1 MOL      0.078528
    158 H76         8.1940    0.1350   -5.5610 hx        1 MOL      0.078528
    159 H77        10.3500    1.1220   -4.7480 hn        1 MOL      0.240806
    160 H78        10.2150    1.3990   -6.2770 hn        1 MOL      0.240806
    161 H79         9.8460    2.5700   -5.2400 hn        1 MOL      0.240806
    162 N14         4.7700    0.8070    1.0800 n         1 MOL     -0.032211
    163 C49         3.9400    1.2380    2.1710 c3        1 MOL     -0.540243
    164 C50         4.4900    0.6880    3.5470 c         1 MOL      0.594697
    165 O22         4.3490    1.3540    4.5640 o         1 MOL     -0.548082
    166 C51         2.5010    0.6940    1.8920 c3        1 MOL      0.106531
    167 C52         2.0360    0.9290    0.4840 c3        1 MOL      0.380001
    168 C53         0.7400    0.3840    0.2510 c         1 MOL      0.366104
    169 O23        -0.3540    1.0070    0.4290 o         1 MOL     -0.573733
    170 O24         0.5280   -0.7460   -0.2250 o         1 MOL     -0.573733
    171 H80         4.9930   -0.1730    1.0220 hn        1 MOL     -0.008377
    172 H81         3.9680    2.3260    2.1710 h1        1 MOL      0.256487
    173 H82         1.7950    1.0930    2.6150 hc        1 MOL      0.058099
    174 H83         2.4010   -0.3810    2.0970 hc        1 MOL      0.058099
    175 H84         2.7830    0.5400   -0.2100 hc        1 MOL     -0.104630
    176 H85         1.9930    1.9910    0.2300 hc        1 MOL     -0.104630
    177 N15         5.2010   -0.4150    3.5720 n         1 MOL     -0.206202
    178 C54         5.8080   -0.9820    4.7250 c3        1 MOL     -0.279627
    179 H86         5.7460   -2.0680    4.6700 h1        1 MOL      0.117338
    180 H87         6.8540   -0.6800    4.7710 h1        1 MOL      0.117338
    181 H88         5.2900   -0.6330    5.6190 h1        1 MOL      0.117338
    182 H89         5.3170   -0.8970    2.6870 hn        1 MOL      0.257781
    183 Ca1        -1.8460   -0.2940   -1.2970 Ca        1 MOL      1.781113
    184 O25        -0.3260   -1.1730   -3.3180 oh        1 MOL     -0.818607
    185 H90        -0.3710   -1.9700   -3.8400 ho        1 MOL      0.408727
    186 H91         0.2520   -0.5930   -3.8130 ho        1 MOL      0.408727
@<TRIPOS>BOND
     1    1    2 1   
     2    1    4 1   
     3    1    5 1   
     4    1    6 1   
     5    2    3 2   
     6    2    7 1   
     7    7    8 1   
     8    7   15 1   
     9    8    9 1   
    10    8   11 1   
    11    8   16 1   
    12    9   10 2   
    13    9   19 1   
    14   11   12 1   
    15   11   17 1   
    16   11   18 1   
    17   12   13 1   
    18   12   14 1   
    19   19   20 1   
    20   19   28 1   
    21   20   21 1   
    22   20   23 1   
    23   20   29 1   
    24   21   22 2   
    25   21   41 1   
    26   23   24 1   
    27   23   30 1   
    28   23   31 1   
    29   24   25 1   
    30   24   32 1   
    31   24   33 1   
    32   25   26 1   
    33   25   34 1   
    34   25   35 1   
    35   26   27 1   
    36   26   36 1   
    37   26   37 1   
    38   27   38 1   
    39   27   39 1   
    40   27   40 1   
    41   41   42 1   
    42   41   49 1   
    43   42   43 1   
    44   42   45 1   
    45   42   50 1   
    46   43   44 2   
    47   43   53 1   
    48   45   46 1   
    49   45   51 1   
    50   45   52 1   
    51   46   47 1   
    52   46   48 1   
    53   53   54 1   
    54   53   57 1   
    55   54   55 1   
    56   54   58 1   
    57   54   59 1   
    58   55   56 2   
    59   55   60 1   
    60   60   61 1   
    61   60   68 1   
    62   61   62 1   
    63   61   64 1   
    64   61   69 1   
    65   62   63 2   
    66   62   72 1   
    67   64   65 1   
    68   64   70 1   
    69   64   71 1   
    70   65   66 1   
    71   65   67 1   
    72   72   73 1   
    73   72   76 1   
    74   73   74 1   
    75   73   77 1   
    76   73   78 1   
    77   74   75 2   
    78   74   79 1   
    79   79   80 1   
    80   79   86 1   
    81   80   81 1   
    82   80   83 1   
    83   80   87 1   
    84   81   82 2   
    85   81   93 1   
    86   83   84 1   
    87   83   85 1   
    88   83   88 1   
    89   84   90 1   
    90   84   91 1   
    91   84   92 1   
    92   85   89 1   
    93   93   94 1   
    94   93  101 1   
    95   94   95 1   
    96   94   97 1   
    97   94  102 1   
    98   95   96 2   
    99   95  112 1   
   100   97   98 1   
   101   97   99 1   
   102   97  103 1   
   103   98  100 1   
   104   98  104 1   
   105   98  105 1   
   106   99  106 1   
   107   99  107 1   
   108   99  108 1   
   109  100  109 1   
   110  100  110 1   
   111  100  111 1   
   112  112  113 1   
   113  112  119 1   
   114  113  114 1   
   115  113  116 1   
   116  113  120 1   
   117  114  115 2   
   118  114  126 1   
   119  116  117 1   
   120  116  118 1   
   121  116  121 1   
   122  117  123 1   
   123  117  124 1   
   124  117  125 1   
   125  118  122 1   
   126  126  127 1   
   127  126  133 1   
   128  127  128 1   
   129  127  130 1   
   130  127  134 1   
   131  128  129 2   
   132  128  140 1   
   133  130  131 1   
   134  130  132 1   
   135  130  135 1   
   136  131  137 1   
   137  131  138 1   
   138  131  139 1   
   139  132  136 1   
   140  140  141 1   
   141  140  149 1   
   142  141  142 1   
   143  141  144 1   
   144  141  150 1   
   145  142  143 2   
   146  142  162 1   
   147  144  145 1   
   148  144  151 1   
   149  144  152 1   
   150  145  146 1   
   151  145  153 1   
   152  145  154 1   
   153  146  147 1   
   154  146  155 1   
   155  146  156 1   
   156  147  148 1   
   157  147  157 1   
   158  147  158 1   
   159  148  159 1   
   160  148  160 1   
   161  148  161 1   
   162  162  163 1   
   163  162  171 1   
   164  163  164 1   
   165  163  166 1   
   166  163  172 1   
   167  164  165 2   
   168  164  177 1   
   169  166  167 1   
   170  166  173 1   
   171  166  174 1   
   172  167  168 1   
   173  167  175 1   
   174  167  176 1   
   175  168  169 1   
   176  168  170 1   
   177  177  178 1   
   178  177  182 1   
   179  178  179 1   
   180  178  180 1   
   181  178  181 1   
   182  184  185 1   
   183  184  186 1   
@<TRIPOS>SUBSTRUCTURE
     1 MOL         1 TEMP              0 ****  ****    0 ROOT
