@<TRIPOS>MOLECULE
MOL
  183   181     1     0     0
SMALL
resp


@<TRIPOS>ATOM
      1 C1         -1.2920    0.8320    6.5420 c3        1 MOL     -0.163399
      2 C2         -1.5280    1.2150    5.0100 c         1 MOL      0.733532
      3 O1         -0.6140    1.7450    4.3790 o         1 MOL     -0.595617
      4 H1         -1.1600    1.7410    7.1280 hc        1 MOL      0.024649
      5 H2         -2.1550    0.2810    6.9160 hc        1 MOL      0.024649
      6 H3         -0.3990    0.2120    6.6280 hc        1 MOL      0.024649
      7 N1         -2.6410    0.8120    4.5010 n         1 MOL     -0.669583
      8 C3         -3.0020    1.0390    3.0940 c3        1 MOL      0.386188
      9 C4         -3.2160    2.5810    2.7810 c         1 MOL      0.401719
     10 O2         -4.0990    3.2070    3.4160 o         1 MOL     -0.569840
     11 C5         -4.2570    0.1490    2.7800 c3        1 MOL     -0.403798
     12 C6         -4.6340    0.1260    1.3300 c         1 MOL      0.861228
     13 O3         -5.6540   -0.5600    1.0370 o         1 MOL     -0.654226
     14 O4         -3.9650    0.6900    0.4760 o         1 MOL     -0.654226
     15 H4         -3.3700    0.3760    5.0560 hn        1 MOL      0.342215
     16 H5         -2.2010    0.7160    2.4300 h1        1 MOL      0.009312
     17 H6         -5.1340    0.5050    3.3230 hc        1 MOL      0.071470
     18 H7         -3.9590   -0.8280    3.1750 hc        1 MOL      0.071470
     19 N2         -2.5000    3.1470    1.8200 n         1 MOL     -0.061820
     20 C7         -2.6430    4.6020    1.5800 c3        1 MOL     -0.275844
     21 C8         -3.7470    4.8300    0.4930 c         1 MOL      0.623516
     22 O5         -4.6800    5.6030    0.6610 o         1 MOL     -0.569105
     23 C9         -1.3500    5.3580    1.2790 c3        1 MOL      0.238386
     24 C10        -0.3820    5.3650    2.4580 c3        1 MOL      0.046601
     25 C11        -1.5960    6.7980    0.7710 c3        1 MOL     -0.318535
     26 C12         1.0540    5.4280    1.9450 c3        1 MOL     -0.125595
     27 H8         -1.9960    2.5440    1.1830 hn        1 MOL     -0.089920
     28 H9         -3.0660    5.1010    2.4520 h1        1 MOL      0.110916
     29 H10        -0.8000    4.9060    0.4430 hc        1 MOL     -0.001000
     30 H11        -0.4320    4.4130    2.9780 hc        1 MOL     -0.006977
     31 H12        -0.5680    6.1320    3.2240 hc        1 MOL     -0.006977
     32 H13        -0.7300    7.4490    0.7030 hc        1 MOL      0.063679
     33 H14        -2.1450    6.7310   -0.1700 hc        1 MOL      0.063679
     34 H15        -2.3350    7.2260    1.4550 hc        1 MOL      0.063679
     35 H16         1.3420    6.4190    1.5770 hc        1 MOL      0.024564
     36 H17         1.6460    5.1630    2.8270 hc        1 MOL      0.024564
     37 H18         1.3190    4.6140    1.2660 hc        1 MOL      0.024564
     38 N3         -3.6300    4.0190   -0.5860 n         1 MOL     -0.351607
     39 C13        -4.6110    4.0880   -1.6870 c3        1 MOL     -0.207421
     40 C14        -5.9320    3.3270   -1.5470 c         1 MOL      0.509972
     41 O6         -6.8570    3.5900   -2.2580 o         1 MOL     -0.525194
     42 C15        -3.8420    3.8230   -3.0540 c3        1 MOL     -0.081154
     43 C16        -2.9900    2.5220   -3.2270 c         1 MOL      0.748114
     44 O7         -2.1880    2.4400   -4.2210 o         1 MOL     -0.723570
     45 O8         -3.1100    1.5310   -2.4640 o         1 MOL     -0.723570
     46 H19        -2.9630    3.2560   -0.5590 hn        1 MOL      0.309186
     47 H20        -4.8740    5.1330   -1.8100 h1        1 MOL      0.132911
     48 H21        -3.1000    4.6070   -3.2580 hc        1 MOL      0.027553
     49 H22        -4.4290    3.8400   -3.9730 hc        1 MOL      0.027553
     50 N4         -5.9940    2.4210   -0.5360 n         1 MOL     -0.088049
     51 C17        -7.2610    1.9870   -0.0180 c3        1 MOL     -0.255432
     52 C18        -7.8130    0.8940   -0.9830 c         1 MOL      0.565665
     53 O9         -8.9480    1.0110   -1.4420 o         1 MOL     -0.583729
     54 H23        -5.1560    1.9230   -0.2850 hn        1 MOL      0.113165
     55 H24        -7.9420    2.8370    0.0340 h1        1 MOL      0.102803
     56 H25        -7.1700    1.6070    0.9990 h1        1 MOL      0.102803
     57 N5         -6.8840   -0.0730   -1.3260 n         1 MOL     -0.312022
     58 C19        -7.0930   -1.1810   -2.3000 c3        1 MOL     -0.040561
     59 C20        -7.3120   -2.5470   -1.6070 c         1 MOL      0.373387
     60 O10        -7.5500   -3.6360   -2.1740 o         1 MOL     -0.536716
     61 C21        -5.9360   -1.2440   -3.3110 c3        1 MOL      0.058125
     62 C22        -4.6010   -1.5180   -2.7600 c         1 MOL      0.624312
     63 O11        -3.6350   -1.6710   -3.5470 o         1 MOL     -0.711213
     64 O12        -4.3860   -1.7410   -1.5230 o         1 MOL     -0.711213
     65 H26        -6.0420   -0.0740   -0.7630 hn        1 MOL      0.133404
     66 H27        -8.0000   -0.9230   -2.8500 h1        1 MOL      0.091397
     67 H28        -5.8870   -0.3310   -3.9000 hc        1 MOL      0.018274
     68 H29        -6.2590   -1.8890   -4.1350 hc        1 MOL      0.018274
     69 N6         -7.1310   -2.5120   -0.2300 n         1 MOL     -0.122181
     70 C23        -7.3350   -3.5740    0.6600 c3        1 MOL     -0.153625
     71 C24        -6.0010   -4.3940    0.8800 c         1 MOL      0.499146
     72 O13        -5.9590   -5.5180    1.3310 o         1 MOL     -0.582900
     73 H30        -6.8800   -1.6280    0.1780 hn        1 MOL      0.161084
     74 H31        -8.1600   -4.2160    0.3430 h1        1 MOL      0.070750
     75 H32        -7.6080   -3.2030    1.6520 h1        1 MOL      0.070750
     76 N7         -4.8400   -3.8600    0.3730 n         1 MOL     -0.058242
     77 C25        -3.5280   -4.4470    0.7690 c3        1 MOL     -0.173220
     78 C26        -2.4500   -3.3650    1.1050 c         1 MOL      0.446302
     79 O14        -2.6580   -2.1880    0.9030 o         1 MOL     -0.560091
     80 C27        -3.0050   -5.2850   -0.3250 c3        1 MOL      0.216424
     81 C28        -2.9860   -4.7160   -1.7190 c3        1 MOL     -0.385647
     82 C29        -1.7700   -3.8280   -2.1780 c         1 MOL      0.863516
     83 N8         -1.0420   -4.1710   -3.2430 n         1 MOL     -0.852270
     84 O15        -1.4000   -2.8440   -1.5150 o         1 MOL     -0.664105
     85 H33        -4.8890   -2.9530   -0.0660 hn        1 MOL      0.142016
     86 H34        -3.7040   -5.0390    1.6680 h1        1 MOL      0.073868
     87 H35        -3.6260   -6.1840   -0.3360 hc        1 MOL     -0.030642
     88 H36        -2.0160   -5.6790   -0.1190 hc        1 MOL     -0.030642
     89 H37        -3.9050   -4.1400   -1.6970 hc        1 MOL      0.089637
     90 H38        -2.9560   -5.5630   -2.4040 hc        1 MOL      0.089637
     91 H39        -1.4590   -4.8500   -3.8710 hn        1 MOL      0.376896
     92 H40        -0.3000   -3.5530   -3.5450 hn        1 MOL      0.376896
     93 N9         -1.3440   -3.9120    1.6230 n         1 MOL     -0.263021
     94 C30        -0.0910   -3.2020    1.8590 c3        1 MOL     -0.015392
     95 C31         0.9960   -3.6990    0.8970 c         1 MOL      0.396161
     96 O16         1.1700   -4.9250    0.7130 o         1 MOL     -0.561424
     97 C32         0.3610   -3.4490    3.3750 c3        1 MOL      0.246190
     98 C33         1.6360   -2.5630    3.7250 c3        1 MOL     -0.268169
     99 C34        -0.8270   -3.0620    4.3260 c3        1 MOL     -0.268169
    100 H41        -1.4000   -4.8490    1.9910 hn        1 MOL      0.241474
    101 H42        -0.3320   -2.1450    1.7950 h1        1 MOL      0.077112
    102 H43         0.5920   -4.4940    3.5370 hc        1 MOL     -0.008749
    103 H44         1.6090   -1.4770    3.7440 hc        1 MOL      0.051484
    104 H45         2.0170   -2.8650    4.6980 hc        1 MOL      0.051484
    105 H46         2.4820   -2.8030    3.0820 hc        1 MOL      0.051484
    106 H47        -1.4740   -3.9410    4.3040 hc        1 MOL      0.051484
    107 H48        -0.5240   -3.1310    5.3750 hc        1 MOL      0.051484
    108 H49        -1.2590   -2.0770    4.1550 hc        1 MOL      0.051484
    109 N10         1.7080   -2.7450    0.2860 n         1 MOL     -0.120168
    110 C35         2.8290   -3.0310   -0.5810 c3        1 MOL      0.016017
    111 C36         4.2300   -2.3800   -0.1520 c         1 MOL      0.372798
    112 O17         4.2230   -1.4880    0.7000 o         1 MOL     -0.361047
    113 C37         2.4890   -2.6890   -2.0500 c3        1 MOL     -0.365596
    114 C38         2.8660   -1.2910   -2.5390 c         1 MOL      0.516382
    115 N11         2.2520   -0.2710   -2.0200 n         1 MOL     -0.466793
    116 O18         3.8080   -1.0960   -3.3410 o         1 MOL     -0.600138
    117 H50         1.5520   -1.7650    0.4810 hn        1 MOL      0.157902
    118 H51         3.0490   -4.1000   -0.5230 h1        1 MOL      0.060194
    119 H52         1.4110   -2.7960   -2.1910 hc        1 MOL      0.136654
    120 H53         3.0190   -3.3670   -2.7150 hc        1 MOL      0.136654
    121 H54         1.4840   -0.3500   -1.3720 hn        1 MOL      0.290853
    122 H55         2.3780    0.6170   -2.4760 hn        1 MOL      0.290853
    123 N12         5.3290   -2.6070   -0.9010 n         1 MOL     -0.426271
    124 C39         6.6530   -2.1450   -0.4280 c3        1 MOL      0.129867
    125 C40         6.8100   -0.6230   -0.2880 c         1 MOL      0.841118
    126 O19         7.3290   -0.1630    0.7190 o         1 MOL     -0.546034
    127 C41         7.7450   -2.6960   -1.3160 c3        1 MOL     -0.377642
    128 C42         9.1000   -2.2420   -0.8930 ca        1 MOL      0.163888
    129 C43         9.6470   -2.5960    0.3520 ca        1 MOL     -0.291978
    130 C44         9.8080   -1.2770   -1.6890 ca        1 MOL     -0.291978
    131 C45        10.9140   -2.0850    0.7430 ca        1 MOL     -0.180172
    132 C46        11.1020   -0.7030   -1.2330 ca        1 MOL     -0.180172
    133 C47        11.6280   -1.2500   -0.0620 ca        1 MOL      0.297531
    134 O20        12.8500   -0.8490    0.2930 oh        1 MOL     -0.517337
    135 H56         5.2470   -3.3070   -1.6190 hn        1 MOL      0.278336
    136 H57         6.6920   -2.4840    0.6090 h1        1 MOL      0.047454
    137 H58         7.4970   -2.3820   -2.3320 hc        1 MOL      0.122981
    138 H59         7.7020   -3.7590   -1.0940 hc        1 MOL      0.122981
    139 H60         9.1160   -3.3150    0.9500 ha        1 MOL      0.169539
    140 H61         9.3770   -0.8970   -2.6060 ha        1 MOL      0.169539
    141 H62        11.4010   -2.5110    1.6080 ha        1 MOL      0.137881
    142 H63        11.6080    0.1320   -1.6920 ha        1 MOL      0.137881
    143 H64        13.1430   -0.2270   -0.3610 ho        1 MOL      0.371076
    144 N13         6.2080    0.1500   -1.1650 n         1 MOL     -0.355934
    145 C48         6.3440    1.6330   -1.0470 c3        1 MOL     -0.602557
    146 C49         5.5160    2.2360    0.1030 c         1 MOL      0.615158
    147 O21         6.0200    3.0740    0.8040 o         1 MOL     -0.533945
    148 C50         5.8800    2.2560   -2.3900 c3        1 MOL      0.626095
    149 C51         6.6270    3.5450   -2.6150 c3        1 MOL     -0.321150
    150 C52         6.1950    4.4180   -3.8470 c         1 MOL      0.664992
    151 O22         7.0190    4.5870   -4.8100 o         1 MOL     -0.722227
    152 O23         4.9840    4.7080   -4.0000 o         1 MOL     -0.722227
    153 H65         5.7250   -0.2190   -1.9700 hn        1 MOL      0.197277
    154 H66         7.3770    1.9750   -0.9950 h1        1 MOL      0.206687
    155 H67         4.8240    2.5180   -2.3470 hc        1 MOL     -0.087998
    156 H68         5.9630    1.7030   -3.3270 hc        1 MOL     -0.087998
    157 H69         7.6980    3.3730   -2.7540 hc        1 MOL      0.007028
    158 H70         6.3040    4.1620   -1.7730 hc        1 MOL      0.007028
    159 N14         4.3630    1.7220    0.4440 n         1 MOL     -0.224785
    160 C53         3.5530    1.8270    1.7150 c3        1 MOL     -0.169775
    161 C54         4.3840    1.2930    2.9960 c         1 MOL      0.480517
    162 O24         4.4360    1.9540    4.0400 o         1 MOL     -0.539868
    163 C55         2.2420    1.0870    1.5630 c3        1 MOL     -0.158675
    164 C56         1.2250    1.9640    0.8410 c3        1 MOL      0.085750
    165 C57         0.0100    1.1720    0.2800 c         1 MOL      0.626466
    166 O25        -1.0500    1.7740   -0.0540 o         1 MOL     -0.645092
    167 O26         0.0900   -0.0690   -0.0470 o         1 MOL     -0.645092
    168 H71         4.0540    1.0560   -0.2510 hn        1 MOL      0.194663
    169 H72         3.4130    2.8790    1.9790 h1        1 MOL      0.133466
    170 H73         1.7150    0.8920    2.4970 hc        1 MOL      0.085037
    171 H74         2.4490    0.1160    1.1060 hc        1 MOL      0.085037
    172 H75         1.7460    2.4290    0.0000 hc        1 MOL      0.015811
    173 H76         0.8310    2.7250    1.5140 hc        1 MOL      0.015811
    174 N15         5.1490    0.1510    2.8590 n         1 MOL      0.003679
    175 C58         5.9630   -0.5080    3.9070 c3        1 MOL     -0.414493
    176 H77         5.4090   -0.5150    4.8460 h1        1 MOL      0.131186
    177 H78         6.1820   -1.5330    3.6070 h1        1 MOL      0.131186
    178 H79         6.8960    0.0400    4.0410 h1        1 MOL      0.131186
    179 H80         5.2600   -0.2710    1.9430 hn        1 MOL     -0.015234
    180 Ca1        -2.2640   -0.5320   -1.0030 Ca        1 MOL      1.674680
    181 O27        -0.6550   -0.1690   -3.2080 oh        1 MOL     -0.853878
    182 H81        -1.0890    0.6640   -3.3900 ho        1 MOL      0.408323
    183 H82        -0.2180   -0.4000   -4.0340 ho        1 MOL      0.408323
@<TRIPOS>BOND
     1    1    2 1   
     2    1    4 1   
     3    1    5 1   
     4    1    6 1   
     5    2    3 2   
     6    2    7 1   
     7    7    8 1   
     8    7   15 1   
     9    8    9 1   
    10    8   11 1   
    11    8   16 1   
    12    9   10 2   
    13    9   19 1   
    14   11   12 1   
    15   11   17 1   
    16   11   18 1   
    17   12   13 1   
    18   12   14 1   
    19   19   20 1   
    20   19   27 1   
    21   20   21 1   
    22   20   23 1   
    23   20   28 1   
    24   21   22 2   
    25   21   38 1   
    26   23   24 1   
    27   23   25 1   
    28   23   29 1   
    29   24   26 1   
    30   24   30 1   
    31   24   31 1   
    32   25   32 1   
    33   25   33 1   
    34   25   34 1   
    35   26   35 1   
    36   26   36 1   
    37   26   37 1   
    38   38   39 1   
    39   38   46 1   
    40   39   40 1   
    41   39   42 1   
    42   39   47 1   
    43   40   41 2   
    44   40   50 1   
    45   42   43 1   
    46   42   48 1   
    47   42   49 1   
    48   43   44 1   
    49   43   45 1   
    50   50   51 1   
    51   50   54 1   
    52   51   52 1   
    53   51   55 1   
    54   51   56 1   
    55   52   53 2   
    56   52   57 1   
    57   57   58 1   
    58   57   65 1   
    59   58   59 1   
    60   58   61 1   
    61   58   66 1   
    62   59   60 2   
    63   59   69 1   
    64   61   62 1   
    65   61   67 1   
    66   61   68 1   
    67   62   63 1   
    68   62   64 1   
    69   69   70 1   
    70   69   73 1   
    71   70   71 1   
    72   70   74 1   
    73   70   75 1   
    74   71   72 2   
    75   71   76 1   
    76   76   77 1   
    77   76   85 1   
    78   77   78 1   
    79   77   80 1   
    80   77   86 1   
    81   78   79 2   
    82   78   93 1   
    83   80   81 1   
    84   80   87 1   
    85   80   88 1   
    86   81   82 1   
    87   81   89 1   
    88   81   90 1   
    89   82   83 1   
    90   82   84 2   
    91   83   91 1   
    92   83   92 1   
    93   93   94 1   
    94   93  100 1   
    95   94   95 1   
    96   94   97 1   
    97   94  101 1   
    98   95   96 2   
    99   95  109 1   
   100   97   98 1   
   101   97   99 1   
   102   97  102 1   
   103   98  103 1   
   104   98  104 1   
   105   98  105 1   
   106   99  106 1   
   107   99  107 1   
   108   99  108 1   
   109  109  110 1   
   110  109  117 1   
   111  110  111 1   
   112  110  113 1   
   113  110  118 1   
   114  111  112 2   
   115  111  123 1   
   116  113  114 1   
   117  113  119 1   
   118  113  120 1   
   119  114  115 1   
   120  114  116 2   
   121  115  121 1   
   122  115  122 1   
   123  123  124 1   
   124  123  135 1   
   125  124  125 1   
   126  124  127 1   
   127  124  136 1   
   128  125  126 2   
   129  125  144 1   
   130  127  128 1   
   131  127  137 1   
   132  127  138 1   
   133  128  129 ar  
   134  128  130 ar  
   135  129  131 ar  
   136  129  139 1   
   137  130  132 ar  
   138  130  140 1   
   139  131  133 ar  
   140  131  141 1   
   141  132  133 ar  
   142  132  142 1   
   143  133  134 1   
   144  134  143 1   
   145  144  145 1   
   146  144  153 1   
   147  145  146 1   
   148  145  148 1   
   149  145  154 1   
   150  146  147 2   
   151  146  159 1   
   152  148  149 1   
   153  148  155 1   
   154  148  156 1   
   155  149  150 1   
   156  149  157 1   
   157  149  158 1   
   158  150  151 1   
   159  150  152 1   
   160  159  160 1   
   161  159  168 1   
   162  160  161 1   
   163  160  163 1   
   164  160  169 1   
   165  161  162 2   
   166  161  174 1   
   167  163  164 1   
   168  163  170 1   
   169  163  171 1   
   170  164  165 1   
   171  164  172 1   
   172  164  173 1   
   173  165  166 1   
   174  165  167 1   
   175  174  175 1   
   176  174  179 1   
   177  175  176 1   
   178  175  177 1   
   179  175  178 1   
   180  181  182 1   
   181  181  183 1   
@<TRIPOS>SUBSTRUCTURE
     1 MOL         1 TEMP              0 ****  ****    0 ROOT
