@<TRIPOS>MOLECULE
MOL
  189   185     1     0     0
SMALL
resp


@<TRIPOS>ATOM
      1 C1         -0.6320    2.5990   -5.4340 c3        1 MOL     -0.233696
      2 C2         -0.0610    2.5210   -4.0030 c         1 MOL      0.672318
      3 O1         -0.7270    2.9380   -3.0120 o         1 MOL     -0.674658
      4 H1         -0.9410    1.6040   -5.7550 hc        1 MOL      0.055435
      5 H2         -1.4910    3.2680   -5.4460 hc        1 MOL      0.055435
      6 H3          0.1340    2.9770   -6.1110 hc        1 MOL      0.055435
      7 N1          1.1430    1.9700   -3.8400 n         1 MOL     -0.495555
      8 C3          1.8080    1.6740   -2.5820 c3        1 MOL      0.078888
      9 C4          2.2420    3.0100   -1.9360 c         1 MOL      0.405312
     10 O2          3.2470    3.4860   -2.3460 o         1 MOL     -0.539080
     11 C5          2.9490    0.6840   -2.8750 c3        1 MOL     -0.315338
     12 C6          3.6980    0.4680   -1.5060 c         1 MOL      0.826960
     13 O3          3.1520    0.8860   -0.4320 o         1 MOL     -0.710512
     14 O4          4.7070   -0.2810   -1.5370 o         1 MOL     -0.710512
     15 H4          1.5090    1.5490   -4.6750 hn        1 MOL      0.306876
     16 H5          1.1500    1.1470   -1.8990 h1        1 MOL      0.013722
     17 H6          3.4960    1.0600   -3.7360 hc        1 MOL      0.090406
     18 H7          2.5900   -0.2490   -3.3040 hc        1 MOL      0.090406
     19 N2          1.4760    3.5740   -1.0020 n         1 MOL      0.015793
     20 C7          1.7820    4.9790   -0.5320 c3        1 MOL     -0.060127
     21 C8          2.9330    5.0580    0.4080 c         1 MOL      0.510554
     22 O5          3.3820    6.1250    0.7170 o         1 MOL     -0.577125
     23 C9          0.5450    5.7140    0.0590 c3        1 MOL      0.209838
     24 C10        -0.6950    5.9430   -0.7590 c3        1 MOL      0.041627
     25 C11        -0.4480    6.3660   -2.2600 c3        1 MOL      0.003544
     26 C12        -1.6240    7.1420   -2.8940 c3        1 MOL      0.190335
     27 N3         -1.3790    7.5610   -4.2770 n4        1 MOL     -0.402042
     28 H8          0.6310    3.1070   -0.7000 hn        1 MOL      0.158187
     29 H9          2.0900    5.5790   -1.3780 h1        1 MOL      0.038099
     30 H10         0.9510    6.6930    0.3240 hc        1 MOL     -0.040678
     31 H11         0.2230    5.2950    1.0050 hc        1 MOL     -0.040678
     32 H12        -1.2670    6.7580   -0.3170 hc        1 MOL     -0.018474
     33 H13        -1.3890    5.1070   -0.7090 hc        1 MOL     -0.018474
     34 H14        -0.0920    5.5310   -2.8620 hc        1 MOL     -0.016254
     35 H15         0.4050    7.0370   -2.1990 hc        1 MOL     -0.016254
     36 H16        -1.7380    8.1200   -2.4130 hx        1 MOL      0.031191
     37 H17        -2.5950    6.6640   -2.8180 hx        1 MOL      0.031191
     38 H18        -2.2080    7.9560   -4.6890 hn        1 MOL      0.334537
     39 H19        -0.6220    8.2240   -4.3580 hn        1 MOL      0.334537
     40 H20        -1.1360    6.6970   -4.7460 hn        1 MOL      0.334537
     41 N4          3.3770    3.9600    0.9940 n         1 MOL     -0.306429
     42 C13         4.3190    3.9190    2.1030 c3        1 MOL      0.121982
     43 C14         5.5300    3.0690    1.8210 c         1 MOL      0.412146
     44 O6          6.4380    3.0840    2.6880 o         1 MOL     -0.552424
     45 C15         3.6700    3.6040    3.4730 c3        1 MOL     -0.196006
     46 C16         2.8230    2.3650    3.5880 c         1 MOL      0.813164
     47 O7          2.7520    1.5180    2.6380 o         1 MOL     -0.717125
     48 O8          2.0360    2.2480    4.5330 o         1 MOL     -0.717125
     49 H21         2.9070    3.1160    0.7000 hn        1 MOL      0.092011
     50 H22         4.7390    4.9030    2.3010 h1        1 MOL      0.078869
     51 H23         3.0800    4.4800    3.7410 hc        1 MOL      0.048801
     52 H24         4.4310    3.4810    4.2470 hc        1 MOL      0.048801
     53 N5          5.6660    2.3640    0.7270 n         1 MOL     -0.183050
     54 C17         7.0030    1.8780    0.3000 c3        1 MOL     -0.416753
     55 C18         7.3830    0.4660    0.8250 c         1 MOL      0.581341
     56 O9          8.4640   -0.0810    0.5780 o         1 MOL     -0.574191
     57 H25         4.8260    2.0910    0.2410 hn        1 MOL      0.201645
     58 H26         7.7790    2.5870    0.5950 h1        1 MOL      0.180520
     59 H27         6.9870    1.7320   -0.7860 h1        1 MOL      0.180520
     60 N6          6.4530   -0.1540    1.6040 n         1 MOL     -0.275879
     61 C19         6.7920   -1.5570    2.0630 c3        1 MOL     -0.006499
     62 C20         6.9170   -2.5210    0.8860 c         1 MOL      0.406843
     63 O10         7.3260   -3.6360    1.0970 o         1 MOL     -0.568861
     64 C21         5.8550   -2.0250    3.1800 c3        1 MOL     -0.240505
     65 C22         4.4770   -1.9870    2.7130 c         1 MOL      0.836045
     66 O11         4.1520   -2.3200    1.5790 o         1 MOL     -0.777015
     67 O12         3.5830   -1.4800    3.4160 o         1 MOL     -0.777015
     68 H28         5.5680    0.2320    1.8900 hn        1 MOL      0.186379
     69 H29         7.7830   -1.4280    2.5010 h1        1 MOL      0.101495
     70 H30         6.1060   -1.3640    4.0020 hc        1 MOL      0.082275
     71 H31         6.0620   -3.0060    3.6020 hc        1 MOL      0.082275
     72 N7          6.4710   -2.1740   -0.2880 n         1 MOL     -0.029108
     73 C23         6.5750   -2.9490   -1.5210 c3        1 MOL     -0.231519
     74 C24         5.3120   -3.8030   -1.7310 c         1 MOL      0.578038
     75 O13         5.3800   -4.6730   -2.5830 o         1 MOL     -0.590311
     76 H32         6.0230   -1.2810   -0.4450 hn        1 MOL      0.202830
     77 H33         7.4410   -3.6170   -1.4440 h1        1 MOL      0.103852
     78 H34         6.7960   -2.2470   -2.3280 h1        1 MOL      0.103852
     79 N8          4.2340   -3.6750   -0.9810 n         1 MOL     -0.024216
     80 C25         2.9700   -4.3310   -1.1630 c3        1 MOL     -0.294059
     81 C26         1.8020   -3.3360   -1.1910 c         1 MOL      0.731859
     82 O14         1.8010   -2.3530   -0.5040 o         1 MOL     -0.587947
     83 C27         2.7920   -5.3960   -0.0870 c3        1 MOL      0.390178
     84 C28         3.7870   -6.5550   -0.3220 c3        1 MOL     -0.494642
     85 O15         3.0220   -4.9240    1.2550 oh        1 MOL     -0.645201
     86 H35         4.1740   -2.8970   -0.3320 hn        1 MOL     -0.022909
     87 H36         2.9050   -4.7790   -2.1620 h1        1 MOL      0.085989
     88 H37         1.7590   -5.7430   -0.0780 h1        1 MOL      0.020755
     89 H38         3.5440   -4.1240    1.2430 ho        1 MOL      0.454672
     90 H39         3.6870   -7.0570   -1.2930 hc        1 MOL      0.132639
     91 H40         4.8220   -6.2290   -0.2460 hc        1 MOL      0.132639
     92 H41         3.6410   -7.3580    0.3930 hc        1 MOL      0.132639
     93 N9          0.7300   -3.6550   -1.9810 n         1 MOL     -0.574217
     94 C29        -0.5160   -2.8420   -2.0380 c3        1 MOL     -0.248037
     95 C30        -1.6320   -3.4840   -1.1920 c         1 MOL      0.623142
     96 O16        -1.9180   -4.6280   -1.4670 o         1 MOL     -0.570670
     97 C31        -0.8450   -2.7010   -3.5300 c3        1 MOL      0.360750
     98 C32         0.2590   -1.9320   -4.2620 c3        1 MOL      0.230667
     99 C33        -2.2460   -1.9740   -3.6250 c3        1 MOL     -0.627446
    100 C34         0.2930   -2.2620   -5.7550 c3        1 MOL     -0.228165
    101 H42         0.8210   -4.4760   -2.5520 hn        1 MOL      0.319211
    102 H43        -0.4120   -1.8460   -1.5930 h1        1 MOL      0.146961
    103 H44        -0.9100   -3.6460   -4.0660 hc        1 MOL     -0.024678
    104 H45         1.2450   -2.2160   -3.8810 hc        1 MOL     -0.039766
    105 H46         0.1050   -0.8690   -4.1040 hc        1 MOL     -0.039766
    106 H47        -2.3260   -1.3150   -2.7640 hc        1 MOL      0.125015
    107 H48        -2.2470   -1.5870   -4.6480 hc        1 MOL      0.125015
    108 H49        -3.0650   -2.7010   -3.5540 hc        1 MOL      0.125015
    109 H50        -0.6710   -2.1300   -6.2390 hc        1 MOL      0.040983
    110 H51         1.0820   -1.6470   -6.1750 hc        1 MOL      0.040983
    111 H52         0.5620   -3.3150   -5.8500 hc        1 MOL      0.040983
    112 N10        -2.1350   -2.8400   -0.1330 n         1 MOL     -0.199092
    113 C35        -3.3290   -3.2420    0.5870 c3        1 MOL     -0.086929
    114 C36        -4.6560   -2.7910    0.0080 c         1 MOL      0.346073
    115 O17        -4.6120   -2.0260   -0.9310 o         1 MOL     -0.327101
    116 C37        -3.2210   -2.6880    1.9840 c3        1 MOL      0.305571
    117 C38        -2.1580   -3.3850    2.9280 c3        1 MOL     -0.296013
    118 O18        -2.9350   -1.3090    1.9930 oh        1 MOL     -0.635235
    119 H53        -1.7140   -1.9360    0.0140 hn        1 MOL      0.225598
    120 H54        -3.3750   -4.3320    0.5630 h1        1 MOL      0.063284
    121 H55        -4.1730   -2.7910    2.5130 h1        1 MOL      0.002123
    122 H56        -2.0800   -1.2050    1.5720 ho        1 MOL      0.425043
    123 H57        -1.1940   -3.4680    2.4190 hc        1 MOL      0.066972
    124 H58        -1.9600   -2.6690    3.7220 hc        1 MOL      0.066972
    125 H59        -2.6480   -4.2850    3.2880 hc        1 MOL      0.066972
    126 N11        -5.7790   -3.3940    0.4380 n         1 MOL     -0.259526
    127 C39        -7.1180   -3.0350   -0.0450 c3        1 MOL     -0.102003
    128 C40        -7.4080   -1.5480    0.0270 c         1 MOL      0.343151
    129 O19        -7.8560   -0.9460   -0.8880 o         1 MOL     -0.489203
    130 C41        -8.2620   -3.7140    0.8060 c3        1 MOL      0.243455
    131 C42        -8.4940   -5.1840    0.5340 c3        1 MOL     -0.479982
    132 O20        -7.9950   -3.6370    2.2240 oh        1 MOL     -0.654317
    133 H60        -5.7920   -4.0390    1.2180 hn        1 MOL      0.252992
    134 H61        -7.2530   -3.3590   -1.0830 h1        1 MOL      0.126859
    135 H62        -9.1630   -3.1460    0.5570 h1        1 MOL      0.091210
    136 H63        -8.3100   -4.4690    2.5790 ho        1 MOL      0.427951
    137 H64        -8.5720   -5.2960   -0.5480 hc        1 MOL      0.138847
    138 H65        -7.5850   -5.7370    0.7830 hc        1 MOL      0.138847
    139 H66        -9.4950   -5.4260    0.8870 hc        1 MOL      0.138847
    140 N12        -6.9410   -0.8860    1.0460 n         1 MOL     -0.057828
    141 C43        -6.8920    0.5670    1.2660 c3        1 MOL     -0.268654
    142 C44        -6.1310    1.3300    0.1650 c         1 MOL      0.528430
    143 O21        -6.6970    2.2980   -0.3320 o         1 MOL     -0.539595
    144 C45        -6.4340    0.7700    2.7830 c3        1 MOL     -0.006332
    145 C46        -6.5100    2.1830    3.3940 c3        1 MOL     -0.067882
    146 C47        -6.2090    2.1500    4.9100 c3        1 MOL     -0.014247
    147 C48        -6.3110    3.5820    5.3300 c3        1 MOL      0.115304
    148 N13        -6.1310    3.9120    6.7500 n4        1 MOL     -0.332548
    149 H67        -6.6830   -1.4100    1.8590 hn        1 MOL      0.168524
    150 H68        -7.9230    0.8580    1.1090 h1        1 MOL      0.131399
    151 H69        -5.3860    0.4560    2.9060 hc        1 MOL      0.042353
    152 H70        -6.9690    0.0890    3.4400 hc        1 MOL      0.042353
    153 H71        -7.4930    2.6330    3.2650 hc        1 MOL      0.039598
    154 H72        -5.7910    2.6700    2.7380 hc        1 MOL      0.039598
    155 H73        -5.1980    1.8040    5.0880 hc        1 MOL      0.037523
    156 H74        -6.8790    1.5630    5.5400 hc        1 MOL      0.037523
    157 H75        -7.2200    4.0480    4.9530 hx        1 MOL      0.056105
    158 H76        -5.4520    4.0790    4.8680 hx        1 MOL      0.056105
    159 H77        -6.1260    4.9070    6.9470 hn        1 MOL      0.300997
    160 H78        -6.8510    3.4510    7.2880 hn        1 MOL      0.300997
    161 H79        -5.2500    3.5130    7.0040 hn        1 MOL      0.300997
    162 N14        -4.9300    0.9210   -0.1680 n         1 MOL     -0.132002
    163 C49        -4.0880    1.4740   -1.2210 c3        1 MOL     -0.170524
    164 C50        -4.6400    1.2780   -2.6390 c         1 MOL      0.422950
    165 O22        -4.4860    2.2080   -3.4290 o         1 MOL     -0.543268
    166 C51        -2.7010    0.8350   -1.0990 c3        1 MOL      0.256088
    167 C52        -2.0110    1.3160    0.1490 c3        1 MOL     -0.092884
    168 C53        -0.6800    0.6360    0.3760 c         1 MOL      0.667725
    169 O23        -0.5370   -0.5970    0.4850 o         1 MOL     -0.736145
    170 O24         0.3150    1.3610    0.5490 o         1 MOL     -0.736145
    171 H80        -4.5460    0.0720    0.2420 hn        1 MOL      0.104811
    172 H81        -3.9410    2.5360   -1.0270 h1        1 MOL      0.104916
    173 H82        -2.1270    1.1160   -1.9880 hc        1 MOL     -0.007372
    174 H83        -2.7980   -0.2470   -1.1080 hc        1 MOL     -0.007372
    175 H84        -2.5860    1.0480    1.0340 hc        1 MOL      0.010306
    176 H85        -2.0460    2.4040    0.1860 hc        1 MOL      0.010306
    177 N15        -5.5020    0.2800   -2.9230 n         1 MOL     -0.024537
    178 C54        -6.4170    0.1950   -4.0440 c3        1 MOL     -0.353123
    179 H86        -6.7520   -0.8350   -4.1610 h1        1 MOL      0.126513
    180 H87        -7.2780    0.8380   -3.8600 h1        1 MOL      0.126513
    181 H88        -5.9100    0.5160   -4.9530 h1        1 MOL      0.126513
    182 H89        -5.4910   -0.4440   -2.2230 hn        1 MOL      0.113493
    183 Ca1         1.9710   -0.5160    1.3740 Ca        1 MOL      1.783589
    184 O25         1.3480   -2.8140    2.3420 oh        1 MOL     -0.766930
    185 H90         1.5750   -3.6370    1.8940 ho        1 MOL      0.373368
    186 H91         1.7380   -2.9030    3.2140 ho        1 MOL      0.373368
    187 O26         0.1870   -0.0250    3.5440 oh        1 MOL     -0.766930
    188 H92        -0.7280   -0.0180    3.8490 ho        1 MOL      0.373368
    189 H93         0.6370    0.5700    4.1370 ho        1 MOL      0.373368
@<TRIPOS>BOND
     1    1    2 1   
     2    1    4 1   
     3    1    5 1   
     4    1    6 1   
     5    2    3 2   
     6    2    7 1   
     7    7    8 1   
     8    7   15 1   
     9    8    9 1   
    10    8   11 1   
    11    8   16 1   
    12    9   10 2   
    13    9   19 1   
    14   11   12 1   
    15   11   17 1   
    16   11   18 1   
    17   12   13 1   
    18   12   14 1   
    19   19   20 1   
    20   19   28 1   
    21   20   21 1   
    22   20   23 1   
    23   20   29 1   
    24   21   22 2   
    25   21   41 1   
    26   23   24 1   
    27   23   30 1   
    28   23   31 1   
    29   24   25 1   
    30   24   32 1   
    31   24   33 1   
    32   25   26 1   
    33   25   34 1   
    34   25   35 1   
    35   26   27 1   
    36   26   36 1   
    37   26   37 1   
    38   27   38 1   
    39   27   39 1   
    40   27   40 1   
    41   41   42 1   
    42   41   49 1   
    43   42   43 1   
    44   42   45 1   
    45   42   50 1   
    46   43   44 2   
    47   43   53 1   
    48   45   46 1   
    49   45   51 1   
    50   45   52 1   
    51   46   47 1   
    52   46   48 1   
    53   53   54 1   
    54   53   57 1   
    55   54   55 1   
    56   54   58 1   
    57   54   59 1   
    58   55   56 2   
    59   55   60 1   
    60   60   61 1   
    61   60   68 1   
    62   61   62 1   
    63   61   64 1   
    64   61   69 1   
    65   62   63 2   
    66   62   72 1   
    67   64   65 1   
    68   64   70 1   
    69   64   71 1   
    70   65   66 1   
    71   65   67 1   
    72   72   73 1   
    73   72   76 1   
    74   73   74 1   
    75   73   77 1   
    76   73   78 1   
    77   74   75 2   
    78   74   79 1   
    79   79   80 1   
    80   79   86 1   
    81   80   81 1   
    82   80   83 1   
    83   80   87 1   
    84   81   82 2   
    85   81   93 1   
    86   83   84 1   
    87   83   85 1   
    88   83   88 1   
    89   84   90 1   
    90   84   91 1   
    91   84   92 1   
    92   85   89 1   
    93   93   94 1   
    94   93  101 1   
    95   94   95 1   
    96   94   97 1   
    97   94  102 1   
    98   95   96 2   
    99   95  112 1   
   100   97   98 1   
   101   97   99 1   
   102   97  103 1   
   103   98  100 1   
   104   98  104 1   
   105   98  105 1   
   106   99  106 1   
   107   99  107 1   
   108   99  108 1   
   109  100  109 1   
   110  100  110 1   
   111  100  111 1   
   112  112  113 1   
   113  112  119 1   
   114  113  114 1   
   115  113  116 1   
   116  113  120 1   
   117  114  115 2   
   118  114  126 1   
   119  116  117 1   
   120  116  118 1   
   121  116  121 1   
   122  117  123 1   
   123  117  124 1   
   124  117  125 1   
   125  118  122 1   
   126  126  127 1   
   127  126  133 1   
   128  127  128 1   
   129  127  130 1   
   130  127  134 1   
   131  128  129 2   
   132  128  140 1   
   133  130  131 1   
   134  130  132 1   
   135  130  135 1   
   136  131  137 1   
   137  131  138 1   
   138  131  139 1   
   139  132  136 1   
   140  140  141 1   
   141  140  149 1   
   142  141  142 1   
   143  141  144 1   
   144  141  150 1   
   145  142  143 2   
   146  142  162 1   
   147  144  145 1   
   148  144  151 1   
   149  144  152 1   
   150  145  146 1   
   151  145  153 1   
   152  145  154 1   
   153  146  147 1   
   154  146  155 1   
   155  146  156 1   
   156  147  148 1   
   157  147  157 1   
   158  147  158 1   
   159  148  159 1   
   160  148  160 1   
   161  148  161 1   
   162  162  163 1   
   163  162  171 1   
   164  163  164 1   
   165  163  166 1   
   166  163  172 1   
   167  164  165 2   
   168  164  177 1   
   169  166  167 1   
   170  166  173 1   
   171  166  174 1   
   172  167  168 1   
   173  167  175 1   
   174  167  176 1   
   175  168  169 1   
   176  168  170 1   
   177  177  178 1   
   178  177  182 1   
   179  178  179 1   
   180  178  180 1   
   181  178  181 1   
   182  184  185 1   
   183  184  186 1   
   184  187  188 1   
   185  187  189 1   
@<TRIPOS>SUBSTRUCTURE
     1 MOL         1 TEMP              0 ****  ****    0 ROOT
