@<TRIPOS>MOLECULE
MOL
  189   185     1     0     0
SMALL
resp


@<TRIPOS>ATOM
      1 C1         -0.5880    1.4410    6.5780 c3        1 MOL     -0.266686
      2 C2         -0.7940    1.5130    5.0090 c         1 MOL      0.747851
      3 O1          0.1140    2.0360    4.3570 o         1 MOL     -0.635778
      4 H1         -1.5290    1.6690    7.0790 hc        1 MOL      0.066458
      5 H2         -0.2630    0.4380    6.8560 hc        1 MOL      0.066458
      6 H3          0.1690    2.1660    6.8790 hc        1 MOL      0.066458
      7 N1         -1.8880    1.0410    4.4770 n         1 MOL     -0.650154
      8 C3         -2.2750    1.2120    3.0950 c3        1 MOL      0.121084
      9 C4         -2.4840    2.7640    2.8010 c         1 MOL      0.606339
     10 O2         -3.1630    3.4650    3.5160 o         1 MOL     -0.561707
     11 C5         -3.6070    0.4370    2.8590 c3        1 MOL     -0.061867
     12 C6         -4.2350    0.6280    1.4270 c         1 MOL      0.668523
     13 O3         -3.4710    0.7900    0.4470 o         1 MOL     -0.643585
     14 O4         -5.4770    0.5810    1.3760 o         1 MOL     -0.643585
     15 H4         -2.5020    0.5360    5.0990 hn        1 MOL      0.330999
     16 H5         -1.5520    0.8510    2.3610 h1        1 MOL     -0.014009
     17 H6         -4.3130    0.7770    3.6040 hc        1 MOL      0.016092
     18 H7         -3.4100   -0.6140    3.0630 hc        1 MOL      0.016092
     19 N2         -1.9820    3.2470    1.6570 n         1 MOL     -0.251200
     20 C7         -1.8030    4.6100    1.2350 c3        1 MOL     -0.020708
     21 C8         -2.7290    5.0210    0.1220 c         1 MOL      0.607271
     22 O5         -3.2530    6.1240    0.2350 o         1 MOL     -0.616297
     23 C9         -0.3470    4.8340    0.7940 c3        1 MOL     -0.315321
     24 C10         0.5670    5.0470    2.0210 c3        1 MOL      0.392918
     25 C11         2.0690    5.5350    1.7300 c3        1 MOL     -0.272291
     26 C12         2.1710    6.9160    1.0790 c3        1 MOL      0.148762
     27 N3          3.5660    7.3640    0.8130 n4        1 MOL     -0.277621
     28 H8         -1.5890    2.6050    0.9800 hn        1 MOL      0.051042
     29 H9         -2.0250    5.2910    2.0510 h1        1 MOL      0.072733
     30 H10        -0.3420    5.7150    0.1520 hc        1 MOL      0.077171
     31 H11         0.0610    4.0780    0.1330 hc        1 MOL      0.077171
     32 H12         0.5290    4.2370    2.7390 hc        1 MOL     -0.026007
     33 H13         0.1490    5.9070    2.5590 hc        1 MOL     -0.026007
     34 H14         2.5460    4.7840    1.0890 hc        1 MOL      0.071397
     35 H15         2.4740    5.5850    2.7400 hc        1 MOL      0.071397
     36 H16         1.8010    7.7020    1.7400 hx        1 MOL      0.047299
     37 H17         1.6550    6.9600    0.1180 hx        1 MOL      0.047299
     38 H18         3.9570    7.6920    1.6940 hn        1 MOL      0.297026
     39 H19         4.1490    6.5810    0.5800 hn        1 MOL      0.297026
     40 H20         3.7040    8.0550    0.0880 hn        1 MOL      0.297026
     41 N4         -3.0120    4.1320   -0.8570 n         1 MOL     -0.438970
     42 C13        -3.8320    4.4020   -2.0680 c3        1 MOL      0.238253
     43 C14        -5.1710    3.6950   -2.0410 c         1 MOL      0.355772
     44 O6         -5.8100    3.5150   -3.0520 o         1 MOL     -0.454623
     45 C15        -2.9040    4.1700   -3.2800 c3        1 MOL     -0.315401
     46 C16        -2.4490    2.7060   -3.4170 c         1 MOL      0.892318
     47 O7         -2.6440    1.8350   -2.5790 o         1 MOL     -0.741848
     48 O8         -1.7990    2.4220   -4.5340 o         1 MOL     -0.741848
     49 H21        -2.5830    3.2410   -0.6690 hn        1 MOL      0.208827
     50 H22        -4.0700    5.4570   -2.0840 h1        1 MOL      0.051785
     51 H23        -2.0220    4.7730   -3.1000 hc        1 MOL      0.056671
     52 H24        -3.5460    4.5430   -4.0780 hc        1 MOL      0.056671
     53 N5         -5.6640    3.2550   -0.8650 n         1 MOL     -0.194723
     54 C17        -7.0730    2.8700   -0.7040 c3        1 MOL     -0.227725
     55 C18        -7.3820    1.5250   -1.4990 c         1 MOL      0.686217
     56 O9         -8.2670    1.5030   -2.3320 o         1 MOL     -0.590810
     57 H25        -5.2090    3.4650    0.0060 hn        1 MOL      0.245218
     58 H26        -7.7210    3.6910   -1.0200 h1        1 MOL      0.093692
     59 H27        -7.2660    2.7360    0.3570 h1        1 MOL      0.093692
     60 N6         -6.7860    0.3560   -1.1450 n         1 MOL     -0.438025
     61 C19        -7.1050   -1.0140   -1.7470 c3        1 MOL      0.095431
     62 C20        -6.9540   -2.1810   -0.7090 c         1 MOL      0.286293
     63 O10        -7.2000   -3.3060   -1.1240 o         1 MOL     -0.478402
     64 C21        -6.1970   -1.2200   -2.9540 c3        1 MOL     -0.411106
     65 C22        -4.6960   -1.2140   -2.6550 c         1 MOL      0.873186
     66 O11        -3.9280   -1.0170   -3.6070 o         1 MOL     -0.694035
     67 O12        -4.2520   -1.3280   -1.5140 o         1 MOL     -0.694035
     68 H28        -6.0500    0.4780   -0.4590 hn        1 MOL      0.151691
     69 H29        -8.1380   -1.0090   -2.0710 h1        1 MOL      0.108159
     70 H30        -6.4020   -0.3740   -3.6100 hc        1 MOL      0.128229
     71 H31        -6.4500   -2.1890   -3.3900 hc        1 MOL      0.128229
     72 N7         -6.5340   -1.9660    0.5510 n         1 MOL     -0.103188
     73 C23        -6.3180   -2.9760    1.5730 c3        1 MOL     -0.164582
     74 C24        -5.3320   -4.0910    1.1310 c         1 MOL      0.550089
     75 O13        -5.4720   -5.2080    1.5260 o         1 MOL     -0.556779
     76 H32        -6.4450   -0.9880    0.7970 hn        1 MOL      0.185382
     77 H33        -7.3080   -3.4050    1.7530 h1        1 MOL      0.083899
     78 H34        -5.9620   -2.4070    2.4300 h1        1 MOL      0.083899
     79 N8         -4.2660   -3.7350    0.4010 n         1 MOL     -0.340802
     80 C25        -3.0110   -4.5920    0.3310 c3        1 MOL     -0.003226
     81 C26        -1.8540   -3.6400    0.5740 c         1 MOL      0.721092
     82 O14        -2.0280   -2.4160    0.4130 o         1 MOL     -0.727381
     83 C27        -2.8750   -5.4300   -0.9960 c3        1 MOL      0.348652
     84 C28        -3.8240   -6.6520   -1.1030 c3        1 MOL     -0.471441
     85 O15        -2.9590   -4.7310   -2.2280 oh        1 MOL     -0.618370
     86 H35        -4.1500   -2.7450    0.2090 hn        1 MOL      0.275078
     87 H36        -3.0090   -5.4530    1.0000 h1        1 MOL      0.056395
     88 H37        -1.8820   -5.8850   -0.9340 h1        1 MOL     -0.039297
     89 H38        -2.9810   -5.3930   -2.9210 ho        1 MOL      0.422382
     90 H39        -3.7580   -7.3880   -0.2980 hc        1 MOL      0.134659
     91 H40        -4.8460   -6.2670   -1.1430 hc        1 MOL      0.134659
     92 H41        -3.7060   -7.0920   -2.0840 hc        1 MOL      0.134659
     93 N9         -0.6810   -4.2830    0.7690 n         1 MOL     -0.546764
     94 C29         0.5460   -3.6430    1.2230 c3        1 MOL      0.181771
     95 C30         1.7080   -3.8910    0.2130 c         1 MOL      0.416868
     96 O16         2.0880   -4.9870    0.0090 o         1 MOL     -0.540137
     97 C31         0.9110   -3.9590    2.7700 c3        1 MOL     -0.028071
     98 C32        -0.2700   -3.6140    3.6390 c3        1 MOL      0.001463
     99 C33         2.2190   -3.3110    3.2090 c3        1 MOL     -0.001696
    100 C34        -0.6970   -2.1450    3.8550 c3        1 MOL     -0.115696
    101 H42        -0.7450   -5.2820    0.9210 hn        1 MOL      0.286835
    102 H43         0.3430   -2.5760    1.0800 h1        1 MOL      0.129100
    103 H44         1.0720   -5.0380    2.8390 hc        1 MOL      0.011167
    104 H45        -0.1090   -4.0540    4.6190 hc        1 MOL      0.002689
    105 H46        -1.1850   -4.0750    3.2750 hc        1 MOL      0.002689
    106 H47         2.9740   -3.6200    2.4910 hc        1 MOL     -0.000056
    107 H48         2.1080   -2.2290    3.0710 hc        1 MOL     -0.000056
    108 H49         2.4820   -3.6410    4.2160 hc        1 MOL     -0.000056
    109 H50        -0.9170   -1.7090    2.8800 hc        1 MOL      0.037420
    110 H51        -1.6500   -2.2130    4.3940 hc        1 MOL      0.037420
    111 H52         0.0790   -1.5660    4.3590 hc        1 MOL      0.037420
    112 N10         2.2780   -2.8210   -0.3400 n         1 MOL     -0.055404
    113 C35         3.4100   -2.7520   -1.3030 c3        1 MOL     -0.010092
    114 C36         4.7260   -2.7720   -0.5230 c         1 MOL      0.386739
    115 O17         4.7400   -2.7860    0.6900 o         1 MOL     -0.350472
    116 C37         3.2640   -1.5560   -2.2320 c3        1 MOL      0.100865
    117 C38         2.1490   -1.7960   -3.1300 c3        1 MOL     -0.390960
    118 O18         2.9680   -0.4600   -1.4110 oh        1 MOL     -0.416402
    119 H53         1.8310   -1.9460   -0.0920 hn        1 MOL     -0.025148
    120 H54         3.4740   -3.6750   -1.8860 h1        1 MOL      0.070801
    121 H55         4.1940   -1.3170   -2.7570 h1        1 MOL      0.053166
    122 H56         2.0210   -0.5430   -1.3320 ho        1 MOL      0.331041
    123 H57         2.3580   -2.6600   -3.7590 hc        1 MOL      0.109844
    124 H58         1.1980   -2.0090   -2.6370 hc        1 MOL      0.109844
    125 H59         2.0280   -0.9120   -3.7660 hc        1 MOL      0.109844
    126 N11         5.8420   -2.7590   -1.2670 n         1 MOL     -0.393273
    127 C39         7.1000   -2.3660   -0.6090 c3        1 MOL      0.048273
    128 C40         7.0230   -1.0010    0.0890 c         1 MOL      0.160467
    129 O19         7.3580   -0.8580    1.2400 o         1 MOL     -0.422644
    130 C41         8.3620   -2.4350   -1.5660 c3        1 MOL      0.235618
    131 C42         8.8700   -3.8780   -1.9700 c3        1 MOL     -0.486365
    132 O20         8.1280   -1.5850   -2.7080 oh        1 MOL     -0.646987
    133 H60         5.7530   -2.7520   -2.2660 hn        1 MOL      0.269160
    134 H61         7.2890   -3.0410    0.2240 h1        1 MOL      0.107837
    135 H62         9.2060   -2.0850   -0.9530 h1        1 MOL      0.057830
    136 H63         8.8480   -1.6360   -3.3370 ho        1 MOL      0.421200
    137 H64         8.2710   -4.2280   -2.8050 hc        1 MOL      0.144438
    138 H65         9.8930   -3.7640   -2.3330 hc        1 MOL      0.144438
    139 H66         8.6410   -4.5900   -1.1670 hc        1 MOL      0.144438
    140 N12         6.4180   -0.0140   -0.6120 n         1 MOL      0.061359
    141 C43         6.3750    1.4100   -0.2300 c3        1 MOL     -0.081771
    142 C44         5.5120    1.6530    1.0190 c         1 MOL      0.392678
    143 O21         5.8490    2.5230    1.8000 o         1 MOL     -0.547458
    144 C45         5.7250    2.1930   -1.3850 c3        1 MOL     -0.353100
    145 C46         6.3290    1.8980   -2.8020 c3        1 MOL     -0.017066
    146 C47         7.7990    2.2810   -3.0610 c3        1 MOL     -0.041716
    147 C48         8.0740    2.1210   -4.5480 c3        1 MOL     -0.050984
    148 N13         9.4560    2.4500   -4.9150 n4        1 MOL     -0.117599
    149 H67         6.1950   -0.2740   -1.5560 hn        1 MOL      0.205149
    150 H68         7.3830    1.7940   -0.0300 h1        1 MOL      0.097290
    151 H69         5.9600    3.2420   -1.2390 hc        1 MOL      0.139392
    152 H70         4.6400    2.0830   -1.3610 hc        1 MOL      0.139392
    153 H71         5.8150    2.5490   -3.5110 hc        1 MOL      0.041917
    154 H72         6.2230    0.8530   -3.0990 hc        1 MOL      0.041917
    155 H73         8.4270    1.6960   -2.3960 hc        1 MOL      0.036683
    156 H74         7.9000    3.3260   -2.7770 hc        1 MOL      0.036683
    157 H75         7.4020    2.8270   -5.0380 hx        1 MOL      0.094104
    158 H76         7.8040    1.0960   -4.8030 hx        1 MOL      0.094104
    159 H77         9.7040    3.3360   -4.5020 hn        1 MOL      0.210809
    160 H78        10.1280    1.7730   -4.5770 hn        1 MOL      0.210809
    161 H79         9.6220    2.6200   -5.9000 hn        1 MOL      0.210809
    162 N14         4.4530    0.8560    1.1840 n         1 MOL      0.000147
    163 C49         3.6620    0.8880    2.3800 c3        1 MOL     -0.143659
    164 C50         4.2890   -0.0680    3.4560 c         1 MOL      0.529589
    165 O22         4.1570    0.2520    4.6580 o         1 MOL     -0.556866
    166 C51         2.2510    0.4700    1.8680 c3        1 MOL      0.242246
    167 C52         1.7050    1.4220    0.7940 c3        1 MOL      0.063508
    168 C53         0.4740    0.7060    0.2340 c         1 MOL      0.581704
    169 O23        -0.5860    1.3480    0.0960 o         1 MOL     -0.594175
    170 O24         0.4960   -0.4820   -0.1240 o         1 MOL     -0.594175
    171 H80         4.2310    0.2330    0.4320 hn        1 MOL     -0.057803
    172 H81         3.5120    1.8740    2.8170 h1        1 MOL      0.089770
    173 H82         1.5650    0.4680    2.7220 hc        1 MOL     -0.020691
    174 H83         2.2890   -0.5100    1.4040 hc        1 MOL     -0.020691
    175 H84         2.4070    1.3970   -0.0400 hc        1 MOL     -0.065630
    176 H85         1.3920    2.3990    1.1770 hc        1 MOL     -0.065630
    177 N15         4.9390   -1.1900    3.1120 n         1 MOL     -0.184843
    178 C54         5.5980   -2.0760    4.1040 c3        1 MOL     -0.287005
    179 H86         6.6800   -1.9730    4.0190 h1        1 MOL      0.112666
    180 H87         5.2840   -1.7940    5.1090 h1        1 MOL      0.112666
    181 H88         5.3170   -3.1110    3.9120 h1        1 MOL      0.112666
    182 H89         5.1720   -1.4290    2.1620 hn        1 MOL      0.193792
    183 Ca1        -1.9760   -0.3830   -1.2560 Ca        1 MOL      1.752702
    184 O25        -1.2800   -2.6340   -2.6240 oh        1 MOL     -0.855307
    185 H90        -1.7640   -3.4610   -2.5960 ho        1 MOL      0.393223
    186 H91        -1.2160   -2.4220   -3.5600 ho        1 MOL      0.393223
    187 O26        -0.5890    0.2400   -3.5130 oh        1 MOL     -0.855307
    188 H92        -0.8620    1.0520   -3.9620 ho        1 MOL      0.393223
    189 H93        -0.5470   -0.4110   -4.2070 ho        1 MOL      0.393223
@<TRIPOS>BOND
     1    1    2 1   
     2    1    4 1   
     3    1    5 1   
     4    1    6 1   
     5    2    3 2   
     6    2    7 1   
     7    7    8 1   
     8    7   15 1   
     9    8    9 1   
    10    8   11 1   
    11    8   16 1   
    12    9   10 2   
    13    9   19 1   
    14   11   12 1   
    15   11   17 1   
    16   11   18 1   
    17   12   13 1   
    18   12   14 1   
    19   19   20 1   
    20   19   28 1   
    21   20   21 1   
    22   20   23 1   
    23   20   29 1   
    24   21   22 2   
    25   21   41 1   
    26   23   24 1   
    27   23   30 1   
    28   23   31 1   
    29   24   25 1   
    30   24   32 1   
    31   24   33 1   
    32   25   26 1   
    33   25   34 1   
    34   25   35 1   
    35   26   27 1   
    36   26   36 1   
    37   26   37 1   
    38   27   38 1   
    39   27   39 1   
    40   27   40 1   
    41   41   42 1   
    42   41   49 1   
    43   42   43 1   
    44   42   45 1   
    45   42   50 1   
    46   43   44 2   
    47   43   53 1   
    48   45   46 1   
    49   45   51 1   
    50   45   52 1   
    51   46   47 1   
    52   46   48 1   
    53   53   54 1   
    54   53   57 1   
    55   54   55 1   
    56   54   58 1   
    57   54   59 1   
    58   55   56 2   
    59   55   60 1   
    60   60   61 1   
    61   60   68 1   
    62   61   62 1   
    63   61   64 1   
    64   61   69 1   
    65   62   63 2   
    66   62   72 1   
    67   64   65 1   
    68   64   70 1   
    69   64   71 1   
    70   65   66 1   
    71   65   67 1   
    72   72   73 1   
    73   72   76 1   
    74   73   74 1   
    75   73   77 1   
    76   73   78 1   
    77   74   75 2   
    78   74   79 1   
    79   79   80 1   
    80   79   86 1   
    81   80   81 1   
    82   80   83 1   
    83   80   87 1   
    84   81   82 2   
    85   81   93 1   
    86   83   84 1   
    87   83   85 1   
    88   83   88 1   
    89   84   90 1   
    90   84   91 1   
    91   84   92 1   
    92   85   89 1   
    93   93   94 1   
    94   93  101 1   
    95   94   95 1   
    96   94   97 1   
    97   94  102 1   
    98   95   96 2   
    99   95  112 1   
   100   97   98 1   
   101   97   99 1   
   102   97  103 1   
   103   98  100 1   
   104   98  104 1   
   105   98  105 1   
   106   99  106 1   
   107   99  107 1   
   108   99  108 1   
   109  100  109 1   
   110  100  110 1   
   111  100  111 1   
   112  112  113 1   
   113  112  119 1   
   114  113  114 1   
   115  113  116 1   
   116  113  120 1   
   117  114  115 2   
   118  114  126 1   
   119  116  117 1   
   120  116  118 1   
   121  116  121 1   
   122  117  123 1   
   123  117  124 1   
   124  117  125 1   
   125  118  122 1   
   126  126  127 1   
   127  126  133 1   
   128  127  128 1   
   129  127  130 1   
   130  127  134 1   
   131  128  129 2   
   132  128  140 1   
   133  130  131 1   
   134  130  132 1   
   135  130  135 1   
   136  131  137 1   
   137  131  138 1   
   138  131  139 1   
   139  132  136 1   
   140  140  141 1   
   141  140  149 1   
   142  141  142 1   
   143  141  144 1   
   144  141  150 1   
   145  142  143 2   
   146  142  162 1   
   147  144  145 1   
   148  144  151 1   
   149  144  152 1   
   150  145  146 1   
   151  145  153 1   
   152  145  154 1   
   153  146  147 1   
   154  146  155 1   
   155  146  156 1   
   156  147  148 1   
   157  147  157 1   
   158  147  158 1   
   159  148  159 1   
   160  148  160 1   
   161  148  161 1   
   162  162  163 1   
   163  162  171 1   
   164  163  164 1   
   165  163  166 1   
   166  163  172 1   
   167  164  165 2   
   168  164  177 1   
   169  166  167 1   
   170  166  173 1   
   171  166  174 1   
   172  167  168 1   
   173  167  175 1   
   174  167  176 1   
   175  168  169 1   
   176  168  170 1   
   177  177  178 1   
   178  177  182 1   
   179  178  179 1   
   180  178  180 1   
   181  178  181 1   
   182  184  185 1   
   183  184  186 1   
   184  187  188 1   
   185  187  189 1   
@<TRIPOS>SUBSTRUCTURE
     1 MOL         1 TEMP              0 ****  ****    0 ROOT
