@<TRIPOS>MOLECULE
MOL
  175   173     1     0     0
SMALL
resp


@<TRIPOS>ATOM
      1 C1         -0.8440   -3.7380    5.6120 c3        1 MOL     -0.383121
      2 C2         -0.2530   -3.7110    4.2400 c         1 MOL      0.771924
      3 O1         -0.8840   -4.2540    3.3560 o         1 MOL     -0.550665
      4 H1         -0.0930   -3.4240    6.3370 hc        1 MOL      0.081071
      5 H2         -1.6960   -3.0590    5.6550 hc        1 MOL      0.081071
      6 H3         -1.1740   -4.7510    5.8470 hc        1 MOL      0.081071
      7 N1          0.9170   -3.1040    4.1470 n         1 MOL     -0.674938
      8 C3          1.6180   -3.1060    2.8230 c3        1 MOL      0.168058
      9 C4          1.7090   -4.4210    2.0080 c         1 MOL      0.543068
     10 O2          1.7590   -5.5360    2.5430 o         1 MOL     -0.572354
     11 C5          3.0300   -2.6880    3.1310 c3        1 MOL     -0.275011
     12 C6          3.9360   -2.3920    1.9840 c         1 MOL      0.859132
     13 O3          3.4380   -2.1260    0.8890 o         1 MOL     -0.724476
     14 O4          5.1190   -2.1570    2.2420 o         1 MOL     -0.724476
     15 H4          1.3930   -2.9640    5.0280 hn        1 MOL      0.352493
     16 H5          1.2320   -2.3250    2.1870 h1        1 MOL      0.101039
     17 H6          3.5680   -3.3740    3.7790 hc        1 MOL      0.042295
     18 H7          3.1210   -1.7530    3.6810 hc        1 MOL      0.042295
     19 N2          1.6300   -4.2870    0.6890 n         1 MOL     -0.633843
     20 C7          1.7130   -5.3980   -0.2550 c3        1 MOL      0.562500
     21 C8          3.0610   -5.3770   -1.0280 c         1 MOL      0.205027
     22 O5          3.6720   -6.4470   -1.3110 o         1 MOL     -0.555297
     23 C9          0.6200   -5.4150   -1.2490 c3        1 MOL     -0.343471
     24 H8          1.5480   -3.3810    0.2330 hn        1 MOL      0.361350
     25 H9          1.6440   -6.4030    0.1630 h1        1 MOL     -0.020686
     26 H10         0.7830   -6.3470   -1.7940 hc        1 MOL      0.068409
     27 H11        -0.3650   -5.4740   -0.8070 hc        1 MOL      0.068409
     28 H12         0.5410   -4.5360   -1.9010 hc        1 MOL      0.068409
     29 N3          3.5310   -4.1680   -1.4670 n         1 MOL      0.070017
     30 C10         4.5190   -3.9250   -2.5120 c3        1 MOL     -0.025785
     31 C11         5.8440   -3.1550   -2.0480 c         1 MOL      0.358374
     32 O6          6.8120   -3.0500   -2.7750 o         1 MOL     -0.548565
     33 C12         3.8500   -3.0430   -3.6030 c3        1 MOL     -0.206870
     34 C13         2.9250   -1.8470   -3.1780 c         1 MOL      0.630266
     35 O7          3.1430   -1.3050   -2.0580 o         1 MOL     -0.644875
     36 O8          2.1370   -1.3600   -4.0230 o         1 MOL     -0.644875
     37 H13         3.1720   -3.3570   -0.9860 hn        1 MOL      0.009097
     38 H14         4.8550   -4.8800   -2.9240 h1        1 MOL      0.098180
     39 H15         3.1270   -3.7040   -4.0940 hc        1 MOL      0.044841
     40 H16         4.5250   -2.6050   -4.3390 hc        1 MOL      0.044841
     41 N4          5.8410   -2.5790   -0.8500 n         1 MOL     -0.161083
     42 C14         6.9730   -1.8050   -0.3030 c3        1 MOL     -0.020980
     43 C15         7.1050   -0.3670   -0.7660 c         1 MOL      0.483692
     44 O9          8.1510    0.2020   -0.4780 o         1 MOL     -0.617642
     45 H17         5.0540   -2.7080   -0.2310 hn        1 MOL      0.101783
     46 H18         7.9600   -2.2420   -0.4830 h1        1 MOL      0.073348
     47 H19         6.9580   -1.8480    0.7800 h1        1 MOL      0.073348
     48 N5          6.1600    0.2360   -1.5010 n         1 MOL     -0.244999
     49 C16         6.2180    1.5530   -2.1620 c3        1 MOL     -0.004063
     50 C17         6.1250    2.7710   -1.2760 c         1 MOL      0.453691
     51 O10         5.6900    3.8190   -1.6720 o         1 MOL     -0.455298
     52 C18         5.2070    1.5580   -3.3150 c3        1 MOL     -0.361607
     53 C19         3.7830    1.7370   -2.7780 c         1 MOL      0.500503
     54 N6          2.8020    1.8920   -3.6370 n         1 MOL     -0.562241
     55 O11         3.5250    1.7860   -1.5540 o         1 MOL     -0.563378
     56 H20         5.3810   -0.3730   -1.6930 hn        1 MOL      0.260582
     57 H21         7.2160    1.5790   -2.6130 h1        1 MOL      0.095436
     58 H22         5.2390    0.5660   -3.7830 hc        1 MOL      0.143009
     59 H23         5.3530    2.3400   -4.0570 hc        1 MOL      0.143009
     60 H24         2.9740    1.9050   -4.6280 hn        1 MOL      0.331709
     61 H25         1.9020    2.0290   -3.2000 hn        1 MOL      0.331709
     62 N7          6.7030    2.7470   -0.0350 n         1 MOL     -0.302306
     63 C20         6.7790    3.7860    0.9710 c3        1 MOL     -0.340538
     64 C21         5.5090    4.4020    1.4850 c         1 MOL      0.586870
     65 O12         5.5840    5.4050    2.2030 o         1 MOL     -0.577019
     66 H26         7.0700    1.8510    0.2600 hn        1 MOL      0.276119
     67 H27         7.2570    4.6830    0.5680 h1        1 MOL      0.160249
     68 H28         7.3510    3.3390    1.7850 h1        1 MOL      0.160249
     69 N8          4.3040    3.9090    1.0840 n         1 MOL     -0.344099
     70 C22         3.0220    4.5980    1.3590 c3        1 MOL     -0.028007
     71 C23         1.7930    3.6760    1.3170 c         1 MOL      0.452871
     72 O13         1.8380    2.5240    0.7930 o         1 MOL     -0.513569
     73 C24         2.7570    5.7400    0.3170 c3        1 MOL      0.809111
     74 C25         3.1820    7.1000    0.8200 c3        1 MOL     -0.333590
     75 O14         3.3570    5.5190   -0.8910 oh        1 MOL     -0.749392
     76 H29         4.2610    3.0830    0.4980 hn        1 MOL      0.154871
     77 H30         3.1420    5.0650    2.3310 h1        1 MOL      0.058794
     78 H31         1.7000    5.8870    0.1290 h1        1 MOL     -0.064713
     79 H32         4.0950    4.9120   -0.8520 ho        1 MOL      0.413096
     80 H33         4.2560    7.2620    0.7020 hc        1 MOL      0.038950
     81 H34         2.5570    7.8670    0.3610 hc        1 MOL      0.038950
     82 H35         2.8720    7.0620    1.8560 hc        1 MOL      0.038950
     83 N9          0.6640    4.0740    1.9710 n         1 MOL     -0.536228
     84 C26        -0.5840    3.3070    1.9220 c3        1 MOL      0.103431
     85 C27        -1.1830    3.3250    0.5240 c         1 MOL      0.441426
     86 O15        -1.2110    4.3640   -0.1210 o         1 MOL     -0.549898
     87 C28        -1.6040    3.8880    2.9660 c3        1 MOL      0.002590
     88 C29        -1.1910    3.3740    4.4160 c3        1 MOL     -0.053410
     89 C30        -3.0880    3.5480    2.7040 c3        1 MOL     -0.188599
     90 C31        -1.4870    1.9170    4.7350 c3        1 MOL     -0.012226
     91 H36         0.5490    4.9910    2.3700 hn        1 MOL      0.260743
     92 H37        -0.4240    2.2520    2.1710 h1        1 MOL      0.129173
     93 H38        -1.5060    4.9620    2.8540 hc        1 MOL      0.034940
     94 H39        -1.5840    4.1050    5.1290 hc        1 MOL      0.011920
     95 H40        -0.0990    3.3660    4.4570 hc        1 MOL      0.011920
     96 H41        -3.6580    3.9310    3.5550 hc        1 MOL      0.042797
     97 H42        -3.4560    3.9780    1.7660 hc        1 MOL      0.042797
     98 H43        -3.2120    2.4790    2.5360 hc        1 MOL      0.042797
     99 H44        -2.5470    1.6910    4.8060 hc        1 MOL      0.003093
    100 H45        -1.0250    1.1430    4.1370 hc        1 MOL      0.003093
    101 H46        -1.0770    1.8170    5.7490 hc        1 MOL      0.003093
    102 N10        -1.7520    2.1700    0.1400 n         1 MOL     -0.140699
    103 C32        -2.5130    2.0450   -1.1330 c3        1 MOL      0.199082
    104 C33        -3.9850    1.6700   -0.7630 c         1 MOL      0.253111
    105 O16        -4.2560    1.1420    0.2990 o         1 MOL     -0.284876
    106 C34        -1.8640    1.0940   -2.1750 c3        1 MOL     -0.097418
    107 C35        -0.3980    1.4850   -2.5480 c         1 MOL      0.570144
    108 O17         0.4800    1.2780   -1.6690 o         1 MOL     -0.643647
    109 O18        -0.1770    1.9720   -3.7050 o         1 MOL     -0.643647
    110 H47        -1.5270    1.3040    0.6070 hn        1 MOL      0.118582
    111 H48        -2.5270    3.0060   -1.6600 h1        1 MOL      0.004960
    112 H49        -2.5070    1.0620   -3.0600 hc        1 MOL      0.047804
    113 H50        -1.8270    0.1410   -1.6490 hc        1 MOL      0.047804
    114 N11        -4.9730    1.8500   -1.6470 n         1 MOL     -0.522708
    115 C36        -6.3250    1.4170   -1.4020 c3        1 MOL      0.346621
    116 C37        -6.5200   -0.1100   -1.1070 c         1 MOL      0.390234
    117 O19        -7.2780   -0.4090   -0.2710 o         1 MOL     -0.472993
    118 C38        -7.3330    2.0780   -2.3820 c3        1 MOL     -0.218933
    119 C39        -8.8130    1.8890   -2.0950 ca        1 MOL      0.035398
    120 C40        -9.3120    2.7160   -1.0690 ca        1 MOL     -0.126588
    121 C41        -9.6100    0.8550   -2.6920 ca        1 MOL     -0.126588
    122 C42       -10.6670    2.6010   -0.7960 ca        1 MOL     -0.104681
    123 C43       -10.9800    0.7860   -2.4050 ca        1 MOL     -0.104681
    124 C44       -11.4960    1.6260   -1.3740 ca        1 MOL     -0.134055
    125 H51        -4.7500    2.3660   -2.4790 hn        1 MOL      0.294871
    126 H52        -6.6240    1.9210   -0.4770 h1        1 MOL      0.029767
    127 H53        -7.0960    1.4970   -3.2750 hc        1 MOL      0.065822
    128 H54        -7.1650    3.1410   -2.5910 hc        1 MOL      0.065822
    129 H55        -8.6590    3.3820   -0.5220 ha        1 MOL      0.121668
    130 H56        -9.2360    0.1680   -3.4400 ha        1 MOL      0.121668
    131 H57       -11.1830    3.2520   -0.1100 ha        1 MOL      0.099491
    132 H58       -11.5900    0.0810   -2.9460 ha        1 MOL      0.099491
    133 H59       -12.5100    1.4770   -1.0350 ha        1 MOL      0.111082
    134 N12        -5.8470   -1.0290   -1.8670 n         1 MOL     -0.142867
    135 C45        -6.0090   -2.4960   -1.6010 c3        1 MOL     -0.089737
    136 C46        -5.5920   -2.9650   -0.2440 c         1 MOL      0.309493
    137 O20        -5.9290   -4.0560    0.2030 o         1 MOL     -0.488567
    138 C47        -5.0850   -3.1210   -2.7200 c3        1 MOL     -0.066260
    139 C48        -5.1230   -2.1530   -3.8690 c3        1 MOL     -0.104375
    140 C49        -5.0970   -0.8440   -3.0800 c3        1 MOL      0.062060
    141 H60        -7.0470   -2.7860   -1.7280 h1        1 MOL      0.109022
    142 H61        -4.0490   -3.2370   -2.4010 hc        1 MOL      0.065920
    143 H62        -5.4610   -4.0840   -3.0630 hc        1 MOL      0.065920
    144 H63        -4.2200   -2.1580   -4.4820 hc        1 MOL      0.053552
    145 H64        -6.0120   -2.1600   -4.5040 hc        1 MOL      0.053552
    146 H65        -4.0810   -0.4820   -2.8710 h1        1 MOL     -0.005780
    147 H66        -5.4930   -0.0000   -3.6470 h1        1 MOL     -0.005780
    148 N13        -4.8310   -2.0430    0.4190 n         1 MOL     -0.028770
    149 C50        -4.3500   -2.2460    1.7330 c3        1 MOL      0.003389
    150 C51        -5.0680   -1.4570    2.8470 c         1 MOL      0.436322
    151 O21        -5.3650   -2.0190    3.8770 o         1 MOL     -0.546828
    152 C52        -2.8330   -1.7850    1.7010 c3        1 MOL      0.085392
    153 C53        -1.9610   -2.2760    0.5130 c3        1 MOL     -0.194794
    154 C54        -0.5940   -1.5360    0.3970 c         1 MOL      0.614430
    155 O22         0.2880   -1.9370   -0.4110 o         1 MOL     -0.698777
    156 O23        -0.3610   -0.4160    0.9590 o         1 MOL     -0.698777
    157 H67        -4.5050   -1.2090   -0.0350 hn        1 MOL      0.114020
    158 H68        -4.4630   -3.2850    2.0400 h1        1 MOL      0.071004
    159 H69        -2.3400   -2.1700    2.5990 hc        1 MOL     -0.026716
    160 H70        -2.7150   -0.7060    1.8240 hc        1 MOL     -0.026716
    161 H71        -2.4680   -2.0800   -0.4290 hc        1 MOL      0.082305
    162 H72        -1.8730   -3.3540    0.6010 hc        1 MOL      0.082305
    163 N14        -5.5910   -0.2720    2.5160 n         1 MOL     -0.093827
    164 C55        -6.5240    0.4680    3.4610 c3        1 MOL     -0.333836
    165 H73        -6.8570    1.3940    2.9920 h1        1 MOL      0.123940
    166 H74        -7.3890   -0.1580    3.6820 h1        1 MOL      0.123940
    167 H75        -5.9960    0.6990    4.3860 h1        1 MOL      0.123940
    168 H76        -5.3140    0.0790    1.6070 hn        1 MOL      0.028760
    169 Ca1         2.0220    0.0610   -0.1750 Ca        1 MOL      1.674451
    170 O24         4.6250    0.3260    1.2380 oh        1 MOL     -0.763487
    171 H77         4.7610   -0.5730    1.5520 ho        1 MOL      0.370000
    172 H78         5.1260    0.8720    1.8560 ho        1 MOL      0.370000
    173 O25         1.8840    0.0790    2.4410 oh        1 MOL     -0.763487
    174 H79         2.2850    0.2300    3.3050 ho        1 MOL      0.370000
    175 H80         0.9460    0.2270    2.5830 ho        1 MOL      0.370000
@<TRIPOS>BOND
     1    1    2 1   
     2    1    4 1   
     3    1    5 1   
     4    1    6 1   
     5    2    3 2   
     6    2    7 1   
     7    7    8 1   
     8    7   15 1   
     9    8    9 1   
    10    8   11 1   
    11    8   16 1   
    12    9   10 2   
    13    9   19 1   
    14   11   12 1   
    15   11   17 1   
    16   11   18 1   
    17   12   13 1   
    18   12   14 1   
    19   19   20 1   
    20   19   24 1   
    21   20   21 1   
    22   20   23 1   
    23   20   25 1   
    24   21   22 2   
    25   21   29 1   
    26   23   26 1   
    27   23   27 1   
    28   23   28 1   
    29   29   30 1   
    30   29   37 1   
    31   30   31 1   
    32   30   33 1   
    33   30   38 1   
    34   31   32 2   
    35   31   41 1   
    36   33   34 1   
    37   33   39 1   
    38   33   40 1   
    39   34   35 1   
    40   34   36 1   
    41   41   42 1   
    42   41   45 1   
    43   42   43 1   
    44   42   46 1   
    45   42   47 1   
    46   43   44 2   
    47   43   48 1   
    48   48   49 1   
    49   48   56 1   
    50   49   50 1   
    51   49   52 1   
    52   49   57 1   
    53   50   51 2   
    54   50   62 1   
    55   52   53 1   
    56   52   58 1   
    57   52   59 1   
    58   53   54 1   
    59   53   55 2   
    60   54   60 1   
    61   54   61 1   
    62   62   63 1   
    63   62   66 1   
    64   63   64 1   
    65   63   67 1   
    66   63   68 1   
    67   64   65 2   
    68   64   69 1   
    69   69   70 1   
    70   69   76 1   
    71   70   71 1   
    72   70   73 1   
    73   70   77 1   
    74   71   72 2   
    75   71   83 1   
    76   73   74 1   
    77   73   75 1   
    78   73   78 1   
    79   74   80 1   
    80   74   81 1   
    81   74   82 1   
    82   75   79 1   
    83   83   84 1   
    84   83   91 1   
    85   84   85 1   
    86   84   87 1   
    87   84   92 1   
    88   85   86 2   
    89   85  102 1   
    90   87   88 1   
    91   87   89 1   
    92   87   93 1   
    93   88   90 1   
    94   88   94 1   
    95   88   95 1   
    96   89   96 1   
    97   89   97 1   
    98   89   98 1   
    99   90   99 1   
   100   90  100 1   
   101   90  101 1   
   102  102  103 1   
   103  102  110 1   
   104  103  104 1   
   105  103  106 1   
   106  103  111 1   
   107  104  105 2   
   108  104  114 1   
   109  106  107 1   
   110  106  112 1   
   111  106  113 1   
   112  107  108 1   
   113  107  109 1   
   114  114  115 1   
   115  114  125 1   
   116  115  116 1   
   117  115  118 1   
   118  115  126 1   
   119  116  117 2   
   120  116  134 1   
   121  118  119 1   
   122  118  127 1   
   123  118  128 1   
   124  119  120 ar  
   125  119  121 ar  
   126  120  122 ar  
   127  120  129 1   
   128  121  123 ar  
   129  121  130 1   
   130  122  124 ar  
   131  122  131 1   
   132  123  124 ar  
   133  123  132 1   
   134  124  133 1   
   135  134  135 1   
   136  134  140 1   
   137  135  136 1   
   138  135  138 1   
   139  135  141 1   
   140  136  137 2   
   141  136  148 1   
   142  138  139 1   
   143  138  142 1   
   144  138  143 1   
   145  139  140 1   
   146  139  144 1   
   147  139  145 1   
   148  140  146 1   
   149  140  147 1   
   150  148  149 1   
   151  148  157 1   
   152  149  150 1   
   153  149  152 1   
   154  149  158 1   
   155  150  151 2   
   156  150  163 1   
   157  152  153 1   
   158  152  159 1   
   159  152  160 1   
   160  153  154 1   
   161  153  161 1   
   162  153  162 1   
   163  154  155 1   
   164  154  156 1   
   165  163  164 1   
   166  163  168 1   
   167  164  165 1   
   168  164  166 1   
   169  164  167 1   
   170  170  171 1   
   171  170  172 1   
   172  173  174 1   
   173  173  175 1   
@<TRIPOS>SUBSTRUCTURE
     1 MOL         1 TEMP              0 ****  ****    0 ROOT
