@<TRIPOS>MOLECULE
MOL
  179   176     1     0     0
SMALL
resp


@<TRIPOS>ATOM
      1 C1          3.3450    2.1940    5.0290 c3        1 MOL     -0.420778
      2 C2          2.5440    2.1480    3.7250 c         1 MOL      0.826032
      3 O1          3.0710    1.9660    2.6260 o         1 MOL     -0.637861
      4 H1          4.3380    1.7760    4.8600 hc        1 MOL      0.108957
      5 H2          3.4390    3.2280    5.3610 hc        1 MOL      0.108957
      6 H3          2.8310    1.6120    5.7920 hc        1 MOL      0.108957
      7 N1          1.1820    2.3520    3.7450 n         1 MOL     -0.740780
      8 C3          0.3870    2.3860    2.4910 c3        1 MOL      0.302452
      9 C4          0.5850    3.7260    1.7760 c         1 MOL      0.468340
     10 O2          0.3590    4.7620    2.4130 o         1 MOL     -0.574447
     11 C5         -1.1130    2.1960    2.7670 c3        1 MOL     -0.240007
     12 C6         -1.9960    2.0950    1.5340 c         1 MOL      0.819364
     13 O3         -3.2320    2.3510    1.6640 o         1 MOL     -0.754135
     14 O4         -1.5550    1.7500    0.4250 o         1 MOL     -0.754135
     15 H4          0.7900    2.6670    4.6230 hn        1 MOL      0.334465
     16 H5          0.7470    1.6180    1.8130 h1        1 MOL      0.036809
     17 H6         -1.4180    3.0630    3.3540 hc        1 MOL      0.070007
     18 H7         -1.1900    1.2600    3.3240 hc        1 MOL      0.070007
     19 N2          0.9350    3.6990    0.4780 n         1 MOL     -0.113098
     20 C7          1.3940    4.7410   -0.2670 c3        1 MOL     -0.190756
     21 C8          0.4150    5.2100   -1.3030 c         1 MOL      0.727225
     22 O5          0.5380    6.3450   -1.6910 o         1 MOL     -0.588093
     23 C9          2.8890    4.5500   -0.7720 c3        1 MOL     -0.006045
     24 C10         4.0630    4.4400    0.2820 c3        1 MOL     -0.104060
     25 C11         3.8390    5.1960    1.5750 c3        1 MOL     -0.204828
     26 C12         5.1590    5.2150    2.3050 c3        1 MOL      0.167202
     27 N3          5.1060    6.3160    3.2840 n4        1 MOL     -0.389741
     28 H8          0.9670    2.7770    0.0670 hn        1 MOL      0.134593
     29 H9          1.3330    5.6270    0.3610 h1        1 MOL      0.081056
     30 H10         3.1080    5.4120   -1.4140 hc        1 MOL      0.045021
     31 H11         2.9580    3.8050   -1.5640 hc        1 MOL      0.045021
     32 H12         4.9930    4.6840   -0.2130 hc        1 MOL      0.072401
     33 H13         4.1110    3.3750    0.5190 hc        1 MOL      0.072401
     34 H14         2.9460    4.8460    2.0940 hc        1 MOL      0.071635
     35 H15         3.6430    6.2260    1.2600 hc        1 MOL      0.071635
     36 H16         5.9850    5.3990    1.6160 hx        1 MOL      0.068904
     37 H17         5.3910    4.2530    2.7800 hx        1 MOL      0.068904
     38 H18         4.2480    6.1090    3.7880 hn        1 MOL      0.324599
     39 H19         5.9190    6.2790    3.8780 hn        1 MOL      0.324599
     40 H20         4.9410    7.2490    2.9270 hn        1 MOL      0.324599
     41 N4         -0.7000    4.4840   -1.5730 n         1 MOL     -0.515269
     42 C13        -1.8130    5.0010   -2.4580 c3        1 MOL     -0.044014
     43 C14        -3.2520    4.8450   -1.9710 c         1 MOL      0.499195
     44 O6         -4.2680    4.9400   -2.6760 o         1 MOL     -0.542380
     45 C15        -1.7880    4.3050   -3.8030 c3        1 MOL     -0.042015
     46 C16        -1.7430    2.7570   -3.6500 c         1 MOL      0.782662
     47 O7         -1.4050    2.0940   -4.6700 o         1 MOL     -0.727021
     48 O8         -2.1320    2.2550   -2.5750 o         1 MOL     -0.727021
     49 H21        -0.7750    3.5120   -1.3040 hn        1 MOL      0.239312
     50 H22        -1.7150    6.0730   -2.6610 h1        1 MOL      0.121266
     51 H23        -0.8380    4.6550   -4.2230 hc        1 MOL      0.018046
     52 H24        -2.5240    4.6200   -4.5520 hc        1 MOL      0.018046
     53 N5         -3.3570    4.5590   -0.6740 n         1 MOL     -0.288509
     54 C17        -4.6620    4.7550    0.0450 c3        1 MOL     -0.382052
     55 C18        -5.6280    3.5910   -0.2250 c         1 MOL      0.667817
     56 O9         -6.7870    3.7110    0.2560 o         1 MOL     -0.592739
     57 H25        -2.6000    4.1270   -0.1600 hn        1 MOL      0.263884
     58 H26        -5.1170    5.6900   -0.2820 h1        1 MOL      0.176760
     59 H27        -4.4600    4.7800    1.1200 h1        1 MOL      0.176760
     60 N6         -5.3400    2.5730   -1.0840 n         1 MOL     -0.300547
     61 C19        -6.2950    1.4840   -1.2760 c3        1 MOL      0.058169
     62 C20        -6.5130    0.6210   -0.0500 c         1 MOL      0.405909
     63 O10        -7.5310   -0.0610   -0.0700 o         1 MOL     -0.527373
     64 C21        -5.7940    0.7620   -2.4800 c3        1 MOL     -0.356561
     65 C22        -4.8780   -0.5300   -2.2370 c         1 MOL      0.533920
     66 N7         -5.1980   -1.5190   -3.0120 n         1 MOL     -0.494730
     67 O11        -4.0160   -0.5890   -1.4270 o         1 MOL     -0.607400
     68 H28        -4.4260    2.4690   -1.5080 hn        1 MOL      0.209698
     69 H29        -7.2910    1.9010   -1.4160 h1        1 MOL      0.093602
     70 H30        -5.3070    1.4140   -3.2010 hc        1 MOL      0.137769
     71 H31        -6.6940    0.3960   -2.9890 hc        1 MOL      0.137769
     72 H32        -5.9350   -1.4560   -3.6960 hn        1 MOL      0.287544
     73 H33        -4.4860   -2.2420   -3.0760 hn        1 MOL      0.287544
     74 N8         -5.7270    0.7620    1.0160 n         1 MOL     -0.010611
     75 C23        -5.9160    0.1530    2.3260 c3        1 MOL     -0.405915
     76 C24        -5.3130   -1.2880    2.4200 c         1 MOL      0.558066
     77 O12        -5.6330   -1.9500    3.3340 o         1 MOL     -0.532277
     78 H34        -4.9460    1.3940    0.8480 hn        1 MOL      0.125397
     79 H35        -6.9570    0.0710    2.6120 h1        1 MOL      0.172296
     80 H36        -5.4670    0.8780    2.9930 h1        1 MOL      0.172296
     81 N9         -4.4140   -1.7110    1.4900 n         1 MOL     -0.224721
     82 C25        -3.4680   -2.8510    1.6500 c3        1 MOL      0.217177
     83 C26        -2.0220   -2.2660    1.6870 c         1 MOL      0.551984
     84 O13        -1.7220   -1.2040    1.1850 o         1 MOL     -0.693305
     85 C27        -3.6180   -3.9260    0.5910 c3        1 MOL     -0.148965
     86 C28        -5.0860   -4.3480    0.4170 ca        1 MOL      0.169526
     87 C29        -5.8500   -3.9990   -0.6940 ca        1 MOL     -0.315107
     88 C30        -5.6160   -5.2420    1.4010 ca        1 MOL     -0.315107
     89 C31        -7.1630   -4.4170   -0.7460 ca        1 MOL     -0.167005
     90 C32        -6.9250   -5.7240    1.2560 ca        1 MOL     -0.167005
     91 C33        -7.7030   -5.3140    0.1660 ca        1 MOL      0.320841
     92 O14        -8.9290   -5.7430   -0.0110 oh        1 MOL     -0.492633
     93 H37        -4.3340   -1.1570    0.6470 hn        1 MOL      0.187914
     94 H38        -3.5120   -3.2900    2.6370 h1        1 MOL     -0.020698
     95 H39        -2.9250   -4.7550    0.7630 hc        1 MOL      0.043864
     96 H40        -3.3780   -3.5560   -0.4110 hc        1 MOL      0.043864
     97 H41        -5.4950   -3.2440   -1.3800 ha        1 MOL      0.172271
     98 H42        -5.0810   -5.5370    2.2880 ha        1 MOL      0.172271
     99 H43        -7.8310   -3.9510   -1.4470 ha        1 MOL      0.121519
    100 H44        -7.3270   -6.4740    1.9150 ha        1 MOL      0.121519
    101 H45        -9.2290   -6.3520    0.6750 ho        1 MOL      0.376323
    102 N10        -1.0610   -3.0720    2.2020 n         1 MOL     -0.449448
    103 C34         0.3720   -2.8860    2.1720 c3        1 MOL     -0.033253
    104 C35         1.0060   -3.8050    1.1310 c         1 MOL      0.405523
    105 O15         1.1800   -5.0200    1.3360 o         1 MOL     -0.556712
    106 C36         1.2030   -2.9720    3.5260 c3        1 MOL      0.142391
    107 C37         0.4670   -2.0050    4.5230 c3        1 MOL      0.049459
    108 C38         2.6380   -2.5170    3.3260 c3        1 MOL     -0.314662
    109 C39         0.9330   -2.3300    5.9700 c3        1 MOL     -0.242825
    110 H46        -1.3640   -3.9320    2.6420 hn        1 MOL      0.281352
    111 H47         0.6210   -1.8770    1.8200 h1        1 MOL      0.133086
    112 H48         1.2150   -4.0190    3.8380 hc        1 MOL      0.033469
    113 H49        -0.6200   -2.0720    4.6220 hc        1 MOL      0.019174
    114 H50         0.6550   -0.9710    4.2480 hc        1 MOL      0.019174
    115 H51         3.1750   -3.1380    2.6080 hc        1 MOL      0.070232
    116 H52         2.6930   -1.5210    2.8830 hc        1 MOL      0.070232
    117 H53         3.1430   -2.6630    4.2840 hc        1 MOL      0.070232
    118 H54         1.9780   -2.0510    6.1280 hc        1 MOL      0.056658
    119 H55         0.3890   -1.8140    6.7600 hc        1 MOL      0.056658
    120 H56         0.8260   -3.4110    6.0090 hc        1 MOL      0.056658
    121 N11         1.6170   -3.2280    0.0820 n         1 MOL     -0.118319
    122 C40         2.4390   -3.9470   -0.8600 c3        1 MOL      0.119817
    123 C41         3.9090   -3.7650   -0.6160 c         1 MOL      0.355195
    124 O16         4.4380   -2.7790   -0.1060 o         1 MOL     -0.355383
    125 C42         2.1480   -3.5200   -2.2850 c3        1 MOL      0.199658
    126 O17         0.8210   -3.9730   -2.5820 oh        1 MOL     -0.644981
    127 H57         1.5660   -2.2280   -0.0700 hn        1 MOL      0.246974
    128 H58         2.3140   -5.0210   -0.8070 h1        1 MOL      0.048669
    129 H59         2.8200   -3.7870   -3.1060 h1        1 MOL     -0.006233
    130 H60         2.0490   -2.4330   -2.2750 h1        1 MOL     -0.006233
    131 H61         0.7080   -3.7320   -3.5050 ho        1 MOL      0.420959
    132 N12         4.6570   -4.6880   -1.2310 n         1 MOL     -0.426164
    133 C43         6.1470   -4.7630   -1.1510 c3        1 MOL      0.097818
    134 C44         6.9360   -3.5690   -1.5410 c         1 MOL      0.481346
    135 O18         7.6630   -3.0430   -0.7070 o         1 MOL     -0.529843
    136 C45         6.5160   -6.0240   -2.0240 c3        1 MOL     -0.391537
    137 H62         4.1610   -5.3450   -1.8190 hn        1 MOL      0.281497
    138 H63         6.2990   -4.9760   -0.0920 h1        1 MOL      0.109164
    139 H64         6.0190   -6.0400   -2.9910 hc        1 MOL      0.120914
    140 H65         7.5840   -6.1180   -2.2340 hc        1 MOL      0.120914
    141 H66         6.1810   -6.8970   -1.4650 hc        1 MOL      0.120914
    142 N13         6.7670   -3.0450   -2.7410 n         1 MOL     -0.353691
    143 C46         7.2980   -1.7770   -3.1000 c3        1 MOL      0.150181
    144 C47         6.9760   -0.5590   -2.1540 c         1 MOL      0.323220
    145 O19         7.6380    0.4450   -2.0370 o         1 MOL     -0.507773
    146 C48         6.9280   -1.7150   -4.5800 c3        1 MOL     -0.321599
    147 H67         6.2950   -3.6400   -3.4080 hn        1 MOL      0.237797
    148 H68         8.3810   -1.9340   -3.0190 h1        1 MOL      0.074660
    149 H69         7.5480   -0.9260   -5.0140 hc        1 MOL      0.095174
    150 H70         7.1610   -2.6580   -5.0930 hc        1 MOL      0.095174
    151 H71         5.8840   -1.4130   -4.6170 hc        1 MOL      0.095174
    152 N14         5.9140   -0.6260   -1.2980 n         1 MOL      0.061762
    153 C49         5.4710    0.5180   -0.4710 c3        1 MOL     -0.099465
    154 C50         6.0870    0.3830    0.9140 c         1 MOL      0.473175
    155 O20         6.4720    1.3930    1.4430 o         1 MOL     -0.532218
    156 C51         3.9200    0.4240   -0.3970 c3        1 MOL      0.102779
    157 C52         3.1470    0.5990   -1.6690 c3        1 MOL      0.069935
    158 C53         1.6610    0.5170   -1.2860 c         1 MOL      0.634668
    159 O21         1.1160   -0.5760   -0.9380 o         1 MOL     -0.729745
    160 O22         0.9200    1.5370   -1.2740 o         1 MOL     -0.729745
    161 H72         5.3570   -1.4750   -1.3370 hn        1 MOL      0.013429
    162 H73         5.7480    1.4870   -0.8640 h1        1 MOL      0.107431
    163 H74         3.6380    1.3150    0.1580 hc        1 MOL     -0.049285
    164 H75         3.6010   -0.5050    0.0800 hc        1 MOL     -0.049285
    165 H76         3.4010   -0.1870   -2.3880 hc        1 MOL     -0.043773
    166 H77         3.5390    1.5370   -2.0600 hc        1 MOL     -0.043773
    167 N15         6.3260   -0.8940    1.3750 n         1 MOL     -0.227145
    168 C54         7.2460   -1.2270    2.4930 c3        1 MOL     -0.154223
    169 H78         8.1820   -1.6150    2.0900 h1        1 MOL      0.082004
    170 H79         7.4470   -0.3290    3.0780 h1        1 MOL      0.082004
    171 H80         6.7860   -1.9810    3.1310 h1        1 MOL      0.082004
    172 H81         5.8750   -1.6870    0.9380 hn        1 MOL      0.179153
    173 Ca1        -1.3170    0.0350   -1.3100 Ca        1 MOL      1.786621
    174 O23        -1.4400   -2.5540   -1.7780 oh        1 MOL     -0.931615
    175 H82        -2.1440   -2.9970   -2.2500 ho        1 MOL      0.427216
    176 H83        -0.6510   -3.0790   -1.9500 ho        1 MOL      0.427216
    177 O24        -0.8750   -0.3820   -3.9370 oh        1 MOL     -0.931615
    178 H84        -0.2510   -0.5640   -4.6410 ho        1 MOL      0.427216
    179 H85        -1.2630    0.4600   -4.1670 ho        1 MOL      0.427216
@<TRIPOS>BOND
     1    1    2 1   
     2    1    4 1   
     3    1    5 1   
     4    1    6 1   
     5    2    3 2   
     6    2    7 1   
     7    7    8 1   
     8    7   15 1   
     9    8    9 1   
    10    8   11 1   
    11    8   16 1   
    12    9   10 2   
    13    9   19 1   
    14   11   12 1   
    15   11   17 1   
    16   11   18 1   
    17   12   13 1   
    18   12   14 1   
    19   19   20 1   
    20   19   28 1   
    21   20   21 1   
    22   20   23 1   
    23   20   29 1   
    24   21   22 2   
    25   21   41 1   
    26   23   24 1   
    27   23   30 1   
    28   23   31 1   
    29   24   25 1   
    30   24   32 1   
    31   24   33 1   
    32   25   26 1   
    33   25   34 1   
    34   25   35 1   
    35   26   27 1   
    36   26   36 1   
    37   26   37 1   
    38   27   38 1   
    39   27   39 1   
    40   27   40 1   
    41   41   42 1   
    42   41   49 1   
    43   42   43 1   
    44   42   45 1   
    45   42   50 1   
    46   43   44 2   
    47   43   53 1   
    48   45   46 1   
    49   45   51 1   
    50   45   52 1   
    51   46   47 1   
    52   46   48 1   
    53   53   54 1   
    54   53   57 1   
    55   54   55 1   
    56   54   58 1   
    57   54   59 1   
    58   55   56 2   
    59   55   60 1   
    60   60   61 1   
    61   60   68 1   
    62   61   62 1   
    63   61   64 1   
    64   61   69 1   
    65   62   63 2   
    66   62   74 1   
    67   64   65 1   
    68   64   70 1   
    69   64   71 1   
    70   65   66 1   
    71   65   67 2   
    72   66   72 1   
    73   66   73 1   
    74   74   75 1   
    75   74   78 1   
    76   75   76 1   
    77   75   79 1   
    78   75   80 1   
    79   76   77 2   
    80   76   81 1   
    81   81   82 1   
    82   81   93 1   
    83   82   83 1   
    84   82   85 1   
    85   82   94 1   
    86   83   84 2   
    87   83  102 1   
    88   85   86 1   
    89   85   95 1   
    90   85   96 1   
    91   86   87 ar  
    92   86   88 ar  
    93   87   89 ar  
    94   87   97 1   
    95   88   90 ar  
    96   88   98 1   
    97   89   91 ar  
    98   89   99 1   
    99   90   91 ar  
   100   90  100 1   
   101   91   92 1   
   102   92  101 1   
   103  102  103 1   
   104  102  110 1   
   105  103  104 1   
   106  103  106 1   
   107  103  111 1   
   108  104  105 2   
   109  104  121 1   
   110  106  107 1   
   111  106  108 1   
   112  106  112 1   
   113  107  109 1   
   114  107  113 1   
   115  107  114 1   
   116  108  115 1   
   117  108  116 1   
   118  108  117 1   
   119  109  118 1   
   120  109  119 1   
   121  109  120 1   
   122  121  122 1   
   123  121  127 1   
   124  122  123 1   
   125  122  125 1   
   126  122  128 1   
   127  123  124 2   
   128  123  132 1   
   129  125  126 1   
   130  125  129 1   
   131  125  130 1   
   132  126  131 1   
   133  132  133 1   
   134  132  137 1   
   135  133  134 1   
   136  133  136 1   
   137  133  138 1   
   138  134  135 2   
   139  134  142 1   
   140  136  139 1   
   141  136  140 1   
   142  136  141 1   
   143  142  143 1   
   144  142  147 1   
   145  143  144 1   
   146  143  146 1   
   147  143  148 1   
   148  144  145 2   
   149  144  152 1   
   150  146  149 1   
   151  146  150 1   
   152  146  151 1   
   153  152  153 1   
   154  152  161 1   
   155  153  154 1   
   156  153  156 1   
   157  153  162 1   
   158  154  155 2   
   159  154  167 1   
   160  156  157 1   
   161  156  163 1   
   162  156  164 1   
   163  157  158 1   
   164  157  165 1   
   165  157  166 1   
   166  158  159 1   
   167  158  160 1   
   168  167  168 1   
   169  167  172 1   
   170  168  169 1   
   171  168  170 1   
   172  168  171 1   
   173  174  175 1   
   174  174  176 1   
   175  177  178 1   
   176  177  179 1   
@<TRIPOS>SUBSTRUCTURE
     1 MOL         1 TEMP              0 ****  ****    0 ROOT
