@<TRIPOS>MOLECULE
MOL
  179   176     1     0     0
SMALL
resp


@<TRIPOS>ATOM
      1 C1          1.3120    3.3240    6.1460 c3        1 MOL     -0.266870
      2 C2          1.0240    2.7480    4.7150 c         1 MOL      0.684470
      3 O1          1.9550    2.4010    3.9530 o         1 MOL     -0.596620
      4 H1          0.5960    4.1130    6.3710 hc        1 MOL      0.068280
      5 H2          1.2190    2.5280    6.8850 hc        1 MOL      0.068280
      6 H3          2.3230    3.7310    6.1780 hc        1 MOL      0.068280
      7 N1         -0.2570    2.6770    4.4490 n         1 MOL     -0.506418
      8 C3         -0.8660    2.3440    3.1680 c3        1 MOL     -0.253886
      9 C4         -0.9320    3.5030    2.2130 c         1 MOL      0.859754
     10 O2         -1.5170    4.5150    2.5330 o         1 MOL     -0.594652
     11 C5         -2.2660    1.7520    3.3870 c3        1 MOL      0.021283
     12 C6         -2.8270    0.9650    2.1930 c         1 MOL      0.642884
     13 O3         -2.0540    0.5580    1.2520 o         1 MOL     -0.714004
     14 O4         -4.0520    0.8230    2.1250 o         1 MOL     -0.714004
     15 H4         -0.9050    3.1010    5.1060 hn        1 MOL      0.323621
     16 H5         -0.2220    1.5940    2.7150 h1        1 MOL      0.075328
     17 H6         -2.9580    2.5450    3.6810 hc        1 MOL      0.022696
     18 H7         -2.2290    1.1400    4.2960 hc        1 MOL      0.022696
     19 N2         -0.2320    3.4660    1.0490 n         1 MOL     -0.505942
     20 C7         -0.0350    4.6630    0.2320 c3        1 MOL     -0.149707
     21 C8         -1.2810    5.3550   -0.5280 c         1 MOL      0.504364
     22 O5         -1.3750    6.5580   -0.6750 o         1 MOL     -0.565479
     23 C9          1.2460    4.5390   -0.5290 c3        1 MOL      0.253382
     24 C10         1.7890    5.8800   -1.0950 c3        1 MOL     -0.355221
     25 C11         3.1480    5.6180   -1.8470 c3        1 MOL      0.031608
     26 C12         3.6590    6.8390   -2.6360 c3        1 MOL      0.017088
     27 N3          4.7170    6.5170   -3.6210 n4        1 MOL     -0.346702
     28 H8          0.2040    2.5880    0.7900 hn        1 MOL      0.279592
     29 H9          0.3350    5.4510    0.8830 h1        1 MOL      0.073523
     30 H10         1.0410    3.8620   -1.3520 hc        1 MOL      0.016364
     31 H11         2.0590    4.1920    0.1090 hc        1 MOL      0.016364
     32 H12         2.0060    6.5500   -0.2690 hc        1 MOL      0.110808
     33 H13         1.0620    6.3640   -1.7470 hc        1 MOL      0.110808
     34 H14         2.9840    4.7640   -2.4960 hc        1 MOL      0.028257
     35 H15         3.8830    5.2720   -1.1290 hc        1 MOL      0.028257
     36 H16         3.9800    7.6110   -1.9320 hx        1 MOL      0.094146
     37 H17         2.8230    7.2390   -3.2060 hx        1 MOL      0.094146
     38 H18         4.3610    5.7840   -4.2100 hn        1 MOL      0.326048
     39 H19         5.0530    7.3310   -4.1180 hn        1 MOL      0.326048
     40 H20         5.4550    6.0580   -3.1060 hn        1 MOL      0.326048
     41 N4         -2.0020    4.4400   -0.9950 n         1 MOL     -0.208792
     42 C13        -3.1990    4.7230   -1.8590 c3        1 MOL     -0.025017
     43 C14        -4.5090    4.1700   -1.2220 c         1 MOL      0.430502
     44 O6         -5.5640    4.2320   -1.8690 o         1 MOL     -0.515445
     45 C15        -2.9470    4.0650   -3.2420 c3        1 MOL     -0.140677
     46 C16        -2.5580    2.5870   -3.2320 c         1 MOL      0.701453
     47 O7         -2.2650    2.0750   -4.3550 o         1 MOL     -0.707686
     48 O8         -2.4500    1.9090   -2.1740 o         1 MOL     -0.707686
     49 H21        -1.8310    3.4690   -0.7720 hn        1 MOL      0.145050
     50 H22        -3.2850    5.8110   -1.9170 h1        1 MOL      0.117516
     51 H23        -2.2610    4.6970   -3.7930 hc        1 MOL      0.051392
     52 H24        -3.8430    4.2440   -3.8170 hc        1 MOL      0.051392
     53 N5         -4.5570    3.6470    0.0300 n         1 MOL     -0.251412
     54 C17        -5.8410    3.3410    0.7940 c3        1 MOL     -0.029614
     55 C18        -6.6770    2.1670    0.3290 c         1 MOL      0.494535
     56 O9         -7.8970    2.2300    0.3970 o         1 MOL     -0.552108
     57 H25        -3.6790    3.6840    0.5250 hn        1 MOL      0.186389
     58 H26        -6.4760    4.2130    0.9110 h1        1 MOL      0.068291
     59 H27        -5.4700    3.0290    1.7720 h1        1 MOL      0.068291
     60 N6         -6.0250    1.1690   -0.2920 n         1 MOL     -0.199771
     61 C19        -6.7610    0.0680   -0.9040 c3        1 MOL     -0.027142
     62 C20        -6.8900   -1.0370    0.1180 c         1 MOL      0.341840
     63 O10        -7.7850   -1.8790   -0.0070 o         1 MOL     -0.529271
     64 C21        -6.0980   -0.3950   -2.2200 c3        1 MOL     -0.333327
     65 C22        -4.9030   -1.2030   -1.8170 c         1 MOL      0.781100
     66 N7         -4.9940   -2.4870   -1.9840 n         1 MOL     -0.908623
     67 O11        -4.0820   -0.7310   -1.1070 o         1 MOL     -0.725320
     68 H28        -5.0170    1.2320   -0.3080 hn        1 MOL      0.207233
     69 H29        -7.7580    0.4350   -1.1200 h1        1 MOL      0.152182
     70 H30        -5.6990    0.3010   -2.9630 hc        1 MOL      0.127578
     71 H31        -6.8120   -1.0300   -2.7310 hc        1 MOL      0.127578
     72 H32        -5.8990   -2.7940   -2.3130 hn        1 MOL      0.378329
     73 H33        -4.2270   -3.1370   -1.8650 hn        1 MOL      0.378329
     74 N8         -6.1930   -0.9890    1.2660 n         1 MOL     -0.015435
     75 C23        -6.1960   -1.9160    2.3790 c3        1 MOL     -0.406467
     76 C24        -5.0280   -2.8910    2.4390 c         1 MOL      0.750437
     77 O12        -5.0590   -3.7120    3.3320 o         1 MOL     -0.590082
     78 H34        -5.7440   -0.0900    1.3900 hn        1 MOL      0.191421
     79 H35        -7.0670   -2.5570    2.2930 h1        1 MOL      0.152782
     80 H36        -6.1390   -1.3150    3.2910 h1        1 MOL      0.152782
     81 N9         -4.0150   -2.8210    1.5540 n         1 MOL     -0.573368
     82 C25        -2.8080   -3.7170    1.8360 c3        1 MOL     -0.015370
     83 C26        -1.4120   -3.0920    1.4640 c         1 MOL      0.741947
     84 O13        -1.3050   -2.3850    0.4240 o         1 MOL     -0.671142
     85 C27        -3.0540   -5.0650    1.0370 c3        1 MOL     -0.203187
     86 C28        -3.0880   -5.0670   -0.5060 ca        1 MOL     -0.070822
     87 C29        -1.9250   -4.8300   -1.3630 ca        1 MOL     -0.011299
     88 C30        -4.3710   -5.3520   -1.0610 ca        1 MOL     -0.011299
     89 C31        -2.0650   -4.8760   -2.7150 ca        1 MOL     -0.347542
     90 C32        -4.4280   -5.4990   -2.4690 ca        1 MOL     -0.347542
     91 C33        -3.2850   -5.2950   -3.2550 ca        1 MOL      0.392696
     92 O14        -3.3750   -5.5140   -4.5780 oh        1 MOL     -0.517424
     93 H37        -3.9890   -2.1410    0.8040 hn        1 MOL      0.457122
     94 H38        -2.6610   -3.8820    2.9040 h1        1 MOL      0.093487
     95 H39        -4.0070   -5.4350    1.3970 hc        1 MOL      0.094992
     96 H40        -2.3190   -5.7940    1.3690 hc        1 MOL      0.094992
     97 H41        -1.0210   -4.5210   -0.8600 ha        1 MOL      0.121287
     98 H42        -5.1530   -5.7600   -0.4490 ha        1 MOL      0.121287
     99 H43        -1.2460   -4.8020   -3.4100 ha        1 MOL      0.155600
    100 H44        -5.3070   -5.8930   -2.9460 ha        1 MOL      0.155600
    101 H45        -4.2030   -5.9130   -4.8690 ho        1 MOL      0.380369
    102 N10        -0.3780   -3.2950    2.2820 n         1 MOL     -0.547472
    103 C34         0.9740   -2.7490    2.1050 c3        1 MOL     -0.034507
    104 C35         1.7490   -3.7030    1.2190 c         1 MOL      0.506433
    105 O15         1.6260   -4.9200    1.2830 o         1 MOL     -0.536242
    106 C36         1.7680   -2.5750    3.4380 c3        1 MOL      0.130419
    107 C37         0.8420   -2.0290    4.5090 c3        1 MOL     -0.210132
    108 C38         3.1330   -1.8430    3.4510 c3        1 MOL     -0.053695
    109 C39         0.2760   -0.6410    4.2780 c3        1 MOL      0.038581
    110 H46        -0.3950   -3.9990    3.0040 hn        1 MOL      0.324898
    111 H47         0.9410   -1.8270    1.5320 h1        1 MOL      0.062483
    112 H48         2.0960   -3.5770    3.7230 hc        1 MOL      0.003377
    113 H49         1.4360   -1.9690    5.4160 hc        1 MOL      0.051914
    114 H50         0.0520   -2.7500    4.7460 hc        1 MOL      0.051914
    115 H51         3.8510   -2.4400    2.8930 hc        1 MOL      0.011723
    116 H52         3.0310   -0.8100    3.0980 hc        1 MOL      0.011723
    117 H53         3.4930   -1.8720    4.4830 hc        1 MOL      0.011723
    118 H54         0.9450    0.0600    3.7790 hc        1 MOL      0.019858
    119 H55        -0.6420   -0.6680    3.6860 hc        1 MOL      0.019858
    120 H56         0.0360   -0.1940    5.2390 hc        1 MOL      0.019858
    121 N11         2.6080   -3.1310    0.3660 n         1 MOL     -0.101429
    122 C40         3.6080   -3.7710   -0.4260 c3        1 MOL     -0.261664
    123 C41         4.9790   -3.1790   -0.3100 c         1 MOL      0.588231
    124 O16         5.0790   -2.2170    0.4410 o         1 MOL     -0.401095
    125 C42         3.1740   -3.7990   -1.9210 c3        1 MOL      0.124225
    126 O17         3.0690   -2.4780   -2.3220 oh        1 MOL     -0.605890
    127 H57         2.7700   -2.1550    0.5690 hn        1 MOL      0.149327
    128 H58         3.6000   -4.7970   -0.0630 h1        1 MOL      0.093210
    129 H59         2.1760   -4.2370   -1.8400 h1        1 MOL      0.052527
    130 H60         3.7130   -4.4500   -2.6190 h1        1 MOL      0.052527
    131 H61         2.3880   -2.0720   -1.7690 ho        1 MOL      0.423582
    132 N12         6.0660   -3.8150   -0.8150 n         1 MOL     -0.493420
    133 C43         7.5140   -3.4910   -0.5400 c3        1 MOL      0.077494
    134 C44         7.7950   -1.9900   -0.8440 c         1 MOL      0.496344
    135 O18         8.3300   -1.3440    0.0410 o         1 MOL     -0.519310
    136 C45         8.4450   -4.4640   -1.3240 c3        1 MOL     -0.296418
    137 H62         5.9610   -4.4760   -1.5740 hn        1 MOL      0.294343
    138 H63         7.5990   -3.6040    0.5410 h1        1 MOL      0.099425
    139 H64         8.2710   -4.3800   -2.4000 hc        1 MOL      0.101163
    140 H65         9.4890   -4.3510   -1.0380 hc        1 MOL      0.101163
    141 H66         8.2230   -5.4840   -1.0360 hc        1 MOL      0.101163
    142 N13         7.2810   -1.4320   -1.9160 n         1 MOL     -0.412703
    143 C46         7.4160   -0.0560   -2.3350 c3        1 MOL      0.018104
    144 C47         6.8760    0.9930   -1.3620 c         1 MOL      0.434753
    145 O19         7.2290    2.1360   -1.3570 o         1 MOL     -0.542931
    146 C48         6.7030    0.0830   -3.6660 c3        1 MOL     -0.326344
    147 H67         6.7680   -2.0070   -2.5660 hn        1 MOL      0.306533
    148 H68         8.4460    0.2500   -2.4950 h1        1 MOL      0.113421
    149 H69         5.6780   -0.2610   -3.6100 hc        1 MOL      0.095314
    150 H70         6.6640    1.1350   -3.9720 hc        1 MOL      0.095314
    151 H71         7.0330   -0.5250   -4.5040 hc        1 MOL      0.095314
    152 N14         5.9070    0.5440   -0.5380 n         1 MOL      0.006134
    153 C49         5.1620    1.3780    0.3980 c3        1 MOL     -0.178477
    154 C50         5.7870    1.2830    1.7510 c         1 MOL      0.536175
    155 O20         6.0590    2.2450    2.3960 o         1 MOL     -0.560823
    156 C51         3.7140    0.8660    0.4850 c3        1 MOL      0.196923
    157 C52         3.0130    1.0220   -0.8110 c3        1 MOL      0.031195
    158 C53         1.6350    0.3400   -0.7310 c         1 MOL      0.714437
    159 O21         1.4840   -0.8380   -1.0160 o         1 MOL     -0.773028
    160 O22         0.6900    1.0560   -0.4330 o         1 MOL     -0.773028
    161 H72         5.6340   -0.4290   -0.6650 hn        1 MOL      0.053752
    162 H73         5.1940    2.3890   -0.0060 h1        1 MOL      0.084504
    163 H74         3.1530    1.3610    1.2780 hc        1 MOL      0.027905
    164 H75         3.6350   -0.2000    0.6950 hc        1 MOL      0.027905
    165 H76         3.5950    0.5680   -1.6140 hc        1 MOL     -0.092053
    166 H77         2.8760    2.0940   -1.0040 hc        1 MOL     -0.092053
    167 N15         6.1060    0.1140    2.2380 n         1 MOL     -0.153532
    168 C54         6.9770   -0.0100    3.3340 c3        1 MOL     -0.290832
    169 H78         7.9700   -0.2870    2.9790 h1        1 MOL      0.111673
    170 H79         7.0330    0.9420    3.8630 h1        1 MOL      0.111673
    171 H80         6.6040   -0.7800    4.0090 h1        1 MOL      0.111673
    172 H81         5.8870   -0.6910    1.6750 hn        1 MOL      0.141951
    173 Ca1        -1.2880   -0.2470   -1.1670 Ca        1 MOL      1.793296
    174 O23        -1.7980   -1.9580   -3.1080 oh        1 MOL     -0.819690
    175 H82        -1.2110   -2.0260   -3.8600 ho        1 MOL      0.405299
    176 H83        -2.6090   -2.3830   -3.4010 ho        1 MOL      0.405299
    177 O24        -0.0770    0.2890   -3.5650 oh        1 MOL     -0.819690
    178 H84        -0.3460    0.7980   -4.3290 ho        1 MOL      0.405299
    179 H85         0.8260    0.0200   -3.7640 ho        1 MOL      0.405299
@<TRIPOS>BOND
     1    1    2 1   
     2    1    4 1   
     3    1    5 1   
     4    1    6 1   
     5    2    3 2   
     6    2    7 1   
     7    7    8 1   
     8    7   15 1   
     9    8    9 1   
    10    8   11 1   
    11    8   16 1   
    12    9   10 2   
    13    9   19 1   
    14   11   12 1   
    15   11   17 1   
    16   11   18 1   
    17   12   13 1   
    18   12   14 1   
    19   19   20 1   
    20   19   28 1   
    21   20   21 1   
    22   20   23 1   
    23   20   29 1   
    24   21   22 2   
    25   21   41 1   
    26   23   24 1   
    27   23   30 1   
    28   23   31 1   
    29   24   25 1   
    30   24   32 1   
    31   24   33 1   
    32   25   26 1   
    33   25   34 1   
    34   25   35 1   
    35   26   27 1   
    36   26   36 1   
    37   26   37 1   
    38   27   38 1   
    39   27   39 1   
    40   27   40 1   
    41   41   42 1   
    42   41   49 1   
    43   42   43 1   
    44   42   45 1   
    45   42   50 1   
    46   43   44 2   
    47   43   53 1   
    48   45   46 1   
    49   45   51 1   
    50   45   52 1   
    51   46   47 1   
    52   46   48 1   
    53   53   54 1   
    54   53   57 1   
    55   54   55 1   
    56   54   58 1   
    57   54   59 1   
    58   55   56 2   
    59   55   60 1   
    60   60   61 1   
    61   60   68 1   
    62   61   62 1   
    63   61   64 1   
    64   61   69 1   
    65   62   63 2   
    66   62   74 1   
    67   64   65 1   
    68   64   70 1   
    69   64   71 1   
    70   65   66 1   
    71   65   67 2   
    72   66   72 1   
    73   66   73 1   
    74   74   75 1   
    75   74   78 1   
    76   75   76 1   
    77   75   79 1   
    78   75   80 1   
    79   76   77 2   
    80   76   81 1   
    81   81   82 1   
    82   81   93 1   
    83   82   83 1   
    84   82   85 1   
    85   82   94 1   
    86   83   84 2   
    87   83  102 1   
    88   85   86 1   
    89   85   95 1   
    90   85   96 1   
    91   86   87 ar  
    92   86   88 ar  
    93   87   89 ar  
    94   87   97 1   
    95   88   90 ar  
    96   88   98 1   
    97   89   91 ar  
    98   89   99 1   
    99   90   91 ar  
   100   90  100 1   
   101   91   92 1   
   102   92  101 1   
   103  102  103 1   
   104  102  110 1   
   105  103  104 1   
   106  103  106 1   
   107  103  111 1   
   108  104  105 2   
   109  104  121 1   
   110  106  107 1   
   111  106  108 1   
   112  106  112 1   
   113  107  109 1   
   114  107  113 1   
   115  107  114 1   
   116  108  115 1   
   117  108  116 1   
   118  108  117 1   
   119  109  118 1   
   120  109  119 1   
   121  109  120 1   
   122  121  122 1   
   123  121  127 1   
   124  122  123 1   
   125  122  125 1   
   126  122  128 1   
   127  123  124 2   
   128  123  132 1   
   129  125  126 1   
   130  125  129 1   
   131  125  130 1   
   132  126  131 1   
   133  132  133 1   
   134  132  137 1   
   135  133  134 1   
   136  133  136 1   
   137  133  138 1   
   138  134  135 2   
   139  134  142 1   
   140  136  139 1   
   141  136  140 1   
   142  136  141 1   
   143  142  143 1   
   144  142  147 1   
   145  143  144 1   
   146  143  146 1   
   147  143  148 1   
   148  144  145 2   
   149  144  152 1   
   150  146  149 1   
   151  146  150 1   
   152  146  151 1   
   153  152  153 1   
   154  152  161 1   
   155  153  154 1   
   156  153  156 1   
   157  153  162 1   
   158  154  155 2   
   159  154  167 1   
   160  156  157 1   
   161  156  163 1   
   162  156  164 1   
   163  157  158 1   
   164  157  165 1   
   165  157  166 1   
   166  158  159 1   
   167  158  160 1   
   168  167  168 1   
   169  167  172 1   
   170  168  169 1   
   171  168  170 1   
   172  168  171 1   
   173  174  175 1   
   174  174  176 1   
   175  177  178 1   
   176  177  179 1   
@<TRIPOS>SUBSTRUCTURE
     1 MOL         1 TEMP              0 ****  ****    0 ROOT
