@<TRIPOS>MOLECULE
MOL
  175   173     1     0     0
SMALL
resp


@<TRIPOS>ATOM
      1 C1          1.3650    5.3210    4.6430 c3        1 MOL     -0.271520
      2 C2          0.6630    4.9070    3.3680 c         1 MOL      0.729872
      3 O1          1.1600    5.0610    2.2670 o         1 MOL     -0.552200
      4 H1          1.0870    6.3460    4.8940 hc        1 MOL      0.065952
      5 H2          1.0690    4.6560    5.4550 hc        1 MOL      0.065952
      6 H3          2.4430    5.2630    4.5000 hc        1 MOL      0.065952
      7 N1         -0.5880    4.4190    3.4540 n         1 MOL     -0.660675
      8 C3         -1.3580    3.8410    2.3800 c3        1 MOL      0.219768
      9 C4         -1.8010    4.9270    1.4420 c         1 MOL      0.639367
     10 O2         -2.3240    6.0210    1.7960 o         1 MOL     -0.634494
     11 C5         -2.6370    3.1220    3.0090 c3        1 MOL     -0.312435
     12 C6         -3.5470    2.4210    2.0450 c         1 MOL      0.775588
     13 O3         -3.1910    1.9740    0.9190 o         1 MOL     -0.711955
     14 O4         -4.6410    1.9760    2.4650 o         1 MOL     -0.711955
     15 H4         -0.9890    4.3390    4.3810 hn        1 MOL      0.314735
     16 H5         -0.7960    3.1000    1.8060 h1        1 MOL      0.082621
     17 H6         -3.2340    3.8010    3.6230 hc        1 MOL      0.067756
     18 H7         -2.2870    2.3200    3.6750 hc        1 MOL      0.067756
     19 N2         -1.7580    4.6470    0.1770 n         1 MOL     -0.640500
     20 C7         -1.9390    5.6120   -0.9070 c3        1 MOL      0.300375
     21 C8         -3.2350    5.2740   -1.7880 c         1 MOL      0.443588
     22 O5         -3.6010    6.0520   -2.6270 o         1 MOL     -0.579111
     23 C9         -0.6770    5.7020   -1.6790 c3        1 MOL     -0.202649
     24 H8         -1.4430    3.6960    0.0100 hn        1 MOL      0.398349
     25 H9         -2.0190    6.6460   -0.5620 h1        1 MOL      0.047064
     26 H10        -0.5380    4.7460   -2.1750 hc        1 MOL      0.048246
     27 H11        -0.6390    6.5950   -2.3140 hc        1 MOL      0.048246
     28 H12         0.1800    5.8550   -1.0210 hc        1 MOL      0.048246
     29 N3         -3.9270    4.1730   -1.5510 n         1 MOL     -0.430457
     30 C10        -5.0520    3.6200   -2.3910 c3        1 MOL      0.294995
     31 C11        -6.1470    2.7510   -1.6930 c         1 MOL      0.162906
     32 O6         -7.2880    2.6350   -2.1760 o         1 MOL     -0.500167
     33 C12        -4.3880    2.7420   -3.4550 c3        1 MOL     -0.476706
     34 C13        -3.5740    1.5020   -3.0000 c         1 MOL      0.889538
     35 O7         -2.7700    0.9250   -3.7310 o         1 MOL     -0.735931
     36 O8         -3.7030    1.0540   -1.8550 o         1 MOL     -0.735931
     37 H13        -3.4670    3.5630   -0.8910 hn        1 MOL      0.258849
     38 H14        -5.5750    4.4630   -2.8460 h1        1 MOL      0.079917
     39 H15        -3.7770    3.4260   -4.0410 hc        1 MOL      0.103225
     40 H16        -5.2000    2.3300   -4.0480 hc        1 MOL      0.103225
     41 N4         -5.9670    2.2520   -0.4680 n         1 MOL     -0.017732
     42 C14        -6.9840    1.4600    0.2520 c3        1 MOL     -0.227321
     43 C15        -7.2830    0.1600   -0.5010 c         1 MOL      0.462953
     44 O9         -8.3770   -0.3590   -0.3390 o         1 MOL     -0.578614
     45 H17        -5.0690    2.3340   -0.0020 hn        1 MOL      0.061482
     46 H18        -7.8870    2.0570    0.3400 h1        1 MOL      0.125885
     47 H19        -6.6100    1.2070    1.2450 h1        1 MOL      0.125885
     48 N5         -6.3370   -0.4190   -1.2640 n         1 MOL     -0.183058
     49 C16        -6.4990   -1.7700   -1.8730 c3        1 MOL     -0.068104
     50 C17        -6.6200   -2.8520   -0.8310 c         1 MOL      0.509845
     51 O10        -7.1220   -3.9060   -1.1580 o         1 MOL     -0.584452
     52 C18        -5.4640   -1.9490   -3.0100 c3        1 MOL      0.005593
     53 C19        -4.0480   -2.0730   -2.4290 c         1 MOL      0.404099
     54 N6         -3.0990   -2.4360   -3.2750 n         1 MOL     -0.506085
     55 O11        -3.7640   -1.7850   -1.2650 o         1 MOL     -0.529937
     56 H20        -5.4120   -0.0230   -1.2940 hn        1 MOL      0.249300
     57 H21        -7.4020   -1.6760   -2.4830 h1        1 MOL      0.082621
     58 H22        -5.5180   -1.0520   -3.6330 hc        1 MOL      0.030859
     59 H23        -5.7390   -2.8000   -3.6290 hc        1 MOL      0.030859
     60 H24        -3.3600   -2.6650   -4.2180 hn        1 MOL      0.304984
     61 H25        -2.1490   -2.3860   -2.9080 hn        1 MOL      0.304984
     62 N7         -6.0640   -2.7150    0.3590 n         1 MOL     -0.162638
     63 C20        -6.0680   -3.8220    1.3930 c3        1 MOL     -0.317003
     64 C21        -4.8100   -4.6990    1.3760 c         1 MOL      0.580059
     65 O12        -4.7440   -5.5460    2.2470 o         1 MOL     -0.582289
     66 H26        -5.4740   -1.9240    0.5880 hn        1 MOL      0.130673
     67 H27        -6.9700   -4.4310    1.2590 h1        1 MOL      0.138795
     68 H28        -6.1210   -3.3220    2.3600 h1        1 MOL      0.138795
     69 N8         -3.7920   -4.4210    0.5490 n         1 MOL     -0.129542
     70 C22        -2.4120   -4.9320    0.6430 c3        1 MOL     -0.367745
     71 C23        -1.4140   -3.8170    1.0110 c         1 MOL      0.675001
     72 O13        -1.4960   -2.7130    0.5180 o         1 MOL     -0.647036
     73 C24        -1.8540   -5.5580   -0.6320 c3        1 MOL      0.567535
     74 C25        -2.6520   -6.7860   -0.9800 c3        1 MOL     -0.451769
     75 O14        -2.0300   -4.7340   -1.7630 oh        1 MOL     -0.598178
     76 H29        -3.9700   -3.7290   -0.1610 hn        1 MOL      0.193451
     77 H30        -2.2410   -5.6510    1.4500 h1        1 MOL      0.110745
     78 H31        -0.8130   -5.8760   -0.5260 h1        1 MOL     -0.020406
     79 H32        -1.5330   -3.9220   -1.6680 ho        1 MOL      0.337704
     80 H33        -3.4580   -6.4870   -1.6440 hc        1 MOL      0.105110
     81 H34        -2.0060   -7.5290   -1.4570 hc        1 MOL      0.105110
     82 H35        -3.0890   -7.1880   -0.0690 hc        1 MOL      0.105110
     83 N9         -0.3580   -4.0480    1.8470 n         1 MOL     -0.516858
     84 C26         0.6680   -3.0460    2.2980 c3        1 MOL     -0.074342
     85 C27         1.7190   -2.9850    1.2300 c         1 MOL      0.546634
     86 O15         2.4790   -3.8930    1.0750 o         1 MOL     -0.570501
     87 C28         1.3440   -3.3540    3.6840 c3        1 MOL      0.154015
     88 C29         0.1990   -3.7890    4.6380 c3        1 MOL      0.205809
     89 C30         2.0830   -2.1050    4.1920 c3        1 MOL     -0.263962
     90 C31         0.8610   -4.2760    6.0030 c3        1 MOL     -0.277381
     91 H36        -0.2490   -4.9960    2.1670 hn        1 MOL      0.274542
     92 H37         0.0900   -2.1220    2.3430 h1        1 MOL      0.099568
     93 H38         2.0010   -4.2220    3.6310 hc        1 MOL      0.011724
     94 H39        -0.4500   -4.5850    4.2770 hc        1 MOL     -0.048337
     95 H40        -0.5030   -2.9530    4.7530 hc        1 MOL     -0.048337
     96 H41         1.3780   -1.2970    4.3490 hc        1 MOL      0.060257
     97 H42         2.5740   -2.2060    5.1630 hc        1 MOL      0.060257
     98 H43         2.8160   -1.8260    3.4380 hc        1 MOL      0.060257
     99 H44         1.6140   -3.5980    6.3920 hc        1 MOL      0.055270
    100 H45         0.0510   -4.3470    6.7340 hc        1 MOL      0.055270
    101 H46         1.3930   -5.2180    5.8750 hc        1 MOL      0.055270
    102 N10         1.7880   -1.9270    0.3390 n         1 MOL     -0.291026
    103 C32         2.5660   -1.9380   -0.9030 c3        1 MOL      0.151706
    104 C33         3.9690   -1.4020   -0.7940 c         1 MOL      0.477951
    105 O16         4.2940   -0.9580    0.3160 o         1 MOL     -0.459635
    106 C34         1.6900   -1.1570   -1.9740 c3        1 MOL     -0.435706
    107 C35         0.3850   -1.8290   -2.2470 c         1 MOL      0.920197
    108 O17        -0.6010   -1.1290   -2.0620 o         1 MOL     -0.734962
    109 O18         0.3690   -2.9990   -2.7030 o         1 MOL     -0.734962
    110 H47         1.4390   -1.0800    0.7550 hn        1 MOL      0.239819
    111 H48         2.6470   -2.9370   -1.3310 h1        1 MOL      0.046344
    112 H49         2.1960   -1.0680   -2.9280 hc        1 MOL      0.102041
    113 H50         1.4420   -0.2040   -1.5130 hc        1 MOL      0.102041
    114 N11         4.8800   -1.4640   -1.7530 n         1 MOL     -0.694347
    115 C36         6.2990   -1.3850   -1.4120 c3        1 MOL      0.615452
    116 C37         6.7040    0.1290   -1.1220 c         1 MOL      0.017531
    117 O19         7.4650    0.3730   -0.1670 o         1 MOL     -0.457340
    118 C38         7.1420   -2.0820   -2.4860 c3        1 MOL     -0.426971
    119 C39         8.6680   -2.0550   -2.1660 ca        1 MOL      0.326178
    120 C40         9.1870   -2.6370   -0.9730 ca        1 MOL     -0.310914
    121 C41         9.5140   -1.6280   -3.1490 ca        1 MOL     -0.310914
    122 C42        10.5550   -2.7500   -0.7560 ca        1 MOL      0.015590
    123 C43        10.9470   -1.7690   -2.9210 ca        1 MOL      0.015590
    124 C44        11.4950   -2.3190   -1.7470 ca        1 MOL     -0.268514
    125 H51         4.5550   -1.6640   -2.6860 hn        1 MOL      0.327868
    126 H52         6.4200   -1.9590   -0.5020 h1        1 MOL      0.027283
    127 H53         6.8890   -1.6140   -3.4420 hc        1 MOL      0.101203
    128 H54         6.7990   -3.1150   -2.4010 hc        1 MOL      0.101203
    129 H55         8.5350   -3.0660   -0.2270 ha        1 MOL      0.149845
    130 H56         9.1480   -1.2280   -4.0910 ha        1 MOL      0.149845
    131 H57        10.9030   -3.2030    0.1640 ha        1 MOL      0.081095
    132 H58        11.6110   -1.4890   -3.7290 ha        1 MOL      0.081095
    133 H59        12.5460   -2.4260   -1.5530 ha        1 MOL      0.147067
    134 N12         6.1970    1.2000   -1.7530 n         1 MOL      0.270134
    135 C45         6.4320    2.6280   -1.2510 c3        1 MOL     -0.151280
    136 C46         5.7840    2.8080    0.1290 c         1 MOL      0.375614
    137 O20         6.2830    3.4560    1.0440 o         1 MOL     -0.492630
    138 C47         5.8740    3.5950   -2.3270 c3        1 MOL      0.113610
    139 C48         6.0720    2.7690   -3.5590 c3        1 MOL     -0.047457
    140 C49         5.8700    1.3030   -3.1330 c3        1 MOL     -0.089926
    141 H60         7.5100    2.7450   -1.2340 h1        1 MOL      0.070783
    142 H61         4.8270    3.7090   -2.0520 hc        1 MOL      0.005604
    143 H62         6.2040    4.6360   -2.3650 hc        1 MOL      0.005604
    144 H63         5.2030    2.9820   -4.1840 hc        1 MOL      0.016882
    145 H64         6.9760    3.0730   -4.0830 hc        1 MOL      0.016882
    146 H65         4.8150    1.0640   -3.1800 h1        1 MOL      0.024081
    147 H66         6.4480    0.7010   -3.8340 h1        1 MOL      0.024081
    148 N13         4.6270    2.1300    0.3420 n         1 MOL     -0.167375
    149 C50         3.9170    2.3200    1.6170 c3        1 MOL     -0.054588
    150 C51         4.7490    1.7270    2.8200 c         1 MOL      0.481453
    151 O21         4.8900    2.3630    3.8450 o         1 MOL     -0.562540
    152 C52         2.5370    1.6590    1.4890 c3        1 MOL      0.107178
    153 C53         1.8050    2.0450    0.2330 c3        1 MOL      0.029275
    154 C54         0.3670    1.4040    0.1880 c         1 MOL      0.416108
    155 O22        -0.5380    1.9150   -0.5190 o         1 MOL     -0.644772
    156 O23         0.0630    0.3810    0.8630 o         1 MOL     -0.644772
    157 H67         4.2760    1.5210   -0.3820 hn        1 MOL      0.154663
    158 H68         3.7850    3.3990    1.7630 h1        1 MOL      0.076392
    159 H69         2.0610    2.1190    2.3590 hc        1 MOL     -0.057485
    160 H70         2.6510    0.5970    1.6960 hc        1 MOL     -0.057485
    161 H71         2.3960    1.7980   -0.6440 hc        1 MOL     -0.007123
    162 H72         1.7090    3.1190    0.3340 hc        1 MOL     -0.007123
    163 N14         5.2110    0.5220    2.5920 n         1 MOL     -0.113350
    164 C55         6.0800   -0.2780    3.4700 c3        1 MOL     -0.167076
    165 H73         6.6710   -0.9660    2.8660 h1        1 MOL      0.070492
    166 H74         6.7460    0.3840    4.0230 h1        1 MOL      0.070492
    167 H75         5.4670   -0.8450    4.1710 h1        1 MOL      0.070492
    168 H76         4.8920    0.0210    1.7720 hn        1 MOL      0.146441
    169 Ca1        -2.2250   -0.1990   -0.1630 Ca        1 MOL      1.704073
    170 O24        -4.7070   -0.4830    1.2960 oh        1 MOL     -0.756243
    171 H77        -4.7710    0.4570    1.4720 ho        1 MOL      0.383848
    172 H78        -4.3390   -0.8580    2.0970 ho        1 MOL      0.383848
    173 O25        -2.1670   -0.6610    2.5600 oh        1 MOL     -0.756243
    174 H79        -2.8570   -0.8880    3.1840 ho        1 MOL      0.383848
    175 H80        -1.5000   -0.2210    3.0980 ho        1 MOL      0.383848
@<TRIPOS>BOND
     1    1    2 1   
     2    1    4 1   
     3    1    5 1   
     4    1    6 1   
     5    2    3 2   
     6    2    7 1   
     7    7    8 1   
     8    7   15 1   
     9    8    9 1   
    10    8   11 1   
    11    8   16 1   
    12    9   10 2   
    13    9   19 1   
    14   11   12 1   
    15   11   17 1   
    16   11   18 1   
    17   12   13 1   
    18   12   14 1   
    19   19   20 1   
    20   19   24 1   
    21   20   21 1   
    22   20   23 1   
    23   20   25 1   
    24   21   22 2   
    25   21   29 1   
    26   23   26 1   
    27   23   27 1   
    28   23   28 1   
    29   29   30 1   
    30   29   37 1   
    31   30   31 1   
    32   30   33 1   
    33   30   38 1   
    34   31   32 2   
    35   31   41 1   
    36   33   34 1   
    37   33   39 1   
    38   33   40 1   
    39   34   35 1   
    40   34   36 1   
    41   41   42 1   
    42   41   45 1   
    43   42   43 1   
    44   42   46 1   
    45   42   47 1   
    46   43   44 2   
    47   43   48 1   
    48   48   49 1   
    49   48   56 1   
    50   49   50 1   
    51   49   52 1   
    52   49   57 1   
    53   50   51 2   
    54   50   62 1   
    55   52   53 1   
    56   52   58 1   
    57   52   59 1   
    58   53   54 1   
    59   53   55 2   
    60   54   60 1   
    61   54   61 1   
    62   62   63 1   
    63   62   66 1   
    64   63   64 1   
    65   63   67 1   
    66   63   68 1   
    67   64   65 2   
    68   64   69 1   
    69   69   70 1   
    70   69   76 1   
    71   70   71 1   
    72   70   73 1   
    73   70   77 1   
    74   71   72 2   
    75   71   83 1   
    76   73   74 1   
    77   73   75 1   
    78   73   78 1   
    79   74   80 1   
    80   74   81 1   
    81   74   82 1   
    82   75   79 1   
    83   83   84 1   
    84   83   91 1   
    85   84   85 1   
    86   84   87 1   
    87   84   92 1   
    88   85   86 2   
    89   85  102 1   
    90   87   88 1   
    91   87   89 1   
    92   87   93 1   
    93   88   90 1   
    94   88   94 1   
    95   88   95 1   
    96   89   96 1   
    97   89   97 1   
    98   89   98 1   
    99   90   99 1   
   100   90  100 1   
   101   90  101 1   
   102  102  103 1   
   103  102  110 1   
   104  103  104 1   
   105  103  106 1   
   106  103  111 1   
   107  104  105 2   
   108  104  114 1   
   109  106  107 1   
   110  106  112 1   
   111  106  113 1   
   112  107  108 1   
   113  107  109 1   
   114  114  115 1   
   115  114  125 1   
   116  115  116 1   
   117  115  118 1   
   118  115  126 1   
   119  116  117 2   
   120  116  134 1   
   121  118  119 1   
   122  118  127 1   
   123  118  128 1   
   124  119  120 ar  
   125  119  121 ar  
   126  120  122 ar  
   127  120  129 1   
   128  121  123 ar  
   129  121  130 1   
   130  122  124 ar  
   131  122  131 1   
   132  123  124 ar  
   133  123  132 1   
   134  124  133 1   
   135  134  135 1   
   136  134  140 1   
   137  135  136 1   
   138  135  138 1   
   139  135  141 1   
   140  136  137 2   
   141  136  148 1   
   142  138  139 1   
   143  138  142 1   
   144  138  143 1   
   145  139  140 1   
   146  139  144 1   
   147  139  145 1   
   148  140  146 1   
   149  140  147 1   
   150  148  149 1   
   151  148  157 1   
   152  149  150 1   
   153  149  152 1   
   154  149  158 1   
   155  150  151 2   
   156  150  163 1   
   157  152  153 1   
   158  152  159 1   
   159  152  160 1   
   160  153  154 1   
   161  153  161 1   
   162  153  162 1   
   163  154  155 1   
   164  154  156 1   
   165  163  164 1   
   166  163  168 1   
   167  164  165 1   
   168  164  166 1   
   169  164  167 1   
   170  170  171 1   
   171  170  172 1   
   172  173  174 1   
   173  173  175 1   
@<TRIPOS>SUBSTRUCTURE
     1 MOL         1 TEMP              0 ****  ****    0 ROOT
