@<TRIPOS>MOLECULE
MOL
  178   175     1     0     0
SMALL
resp


@<TRIPOS>ATOM
      1 C1          1.3240   -3.4950    5.9090 c3        1 MOL     -0.332856
      2 C2          0.8730   -2.9370    4.5580 c         1 MOL      0.782371
      3 O1         -0.0500   -3.4560    3.9570 o         1 MOL     -0.601504
      4 H1          0.4490   -3.7440    6.5090 hc        1 MOL      0.078676
      5 H2          1.9230   -4.3920    5.7500 hc        1 MOL      0.078676
      6 H3          1.9230   -2.7470    6.4300 hc        1 MOL      0.078676
      7 N1          1.5690   -2.0250    3.9360 n         1 MOL     -0.651300
      8 C3          1.7060   -1.8610    2.4520 c3        1 MOL      0.013319
      9 C4          2.1380   -3.1610    1.7480 c         1 MOL      0.678894
     10 O2          3.1140   -3.7420    2.1910 o         1 MOL     -0.567633
     11 C5          2.7520   -0.7520    2.3050 c3        1 MOL      0.000862
     12 C6          3.2400   -0.4610    0.9170 c         1 MOL      0.003241
     13 O3          2.7650   -0.9990   -0.1020 o         1 MOL     -0.298239
     14 O4          4.1850    0.3630    0.8340 o         1 MOL     -0.298239
     15 H4          2.3170   -1.5430    4.4190 hn        1 MOL      0.313768
     16 H5          0.7870   -1.4820    2.0000 h1        1 MOL      0.097054
     17 H6          3.6410   -0.9910    2.8870 hc        1 MOL      0.042226
     18 H7          2.4410    0.2080    2.7110 hc        1 MOL      0.042226
     19 N2          1.4530   -3.5620    0.6730 n         1 MOL     -0.388692
     20 C7          1.7910   -4.8070   -0.0280 c3        1 MOL      0.266128
     21 C8          3.1360   -4.7940   -0.7170 c         1 MOL      0.291819
     22 O5          3.8650   -5.8100   -0.5660 o         1 MOL     -0.558678
     23 C9          0.6760   -5.1490   -1.0460 c3        1 MOL     -0.382162
     24 H8          0.8300   -2.8920    0.2280 hn        1 MOL      0.123743
     25 H9          1.7850   -5.5150    0.7910 h1        1 MOL      0.037068
     26 H10        -0.2160   -5.0670   -0.4250 hc        1 MOL      0.104903
     27 H11         0.6650   -4.3790   -1.8180 hc        1 MOL      0.104903
     28 H12         0.6500   -6.1810   -1.3890 hc        1 MOL      0.104903
     29 N3          3.4890   -3.6720   -1.2780 n         1 MOL     -0.096492
     30 C10         4.8130   -3.5080   -1.9860 c3        1 MOL      0.132040
     31 C11         5.8490   -3.1210   -1.0110 c         1 MOL      0.399694
     32 O6          7.0320   -3.5320   -1.1630 o         1 MOL     -0.565338
     33 C12         4.6300   -2.7330   -3.2860 c3        1 MOL     -0.308223
     34 C13         4.2990   -1.2800   -3.0270 c         1 MOL      0.745412
     35 O7          5.2340   -0.4240   -2.8860 o         1 MOL     -0.701581
     36 O8          3.0730   -1.0200   -2.9810 o         1 MOL     -0.701581
     37 H13         2.8440   -2.8980   -1.3180 hn        1 MOL      0.118386
     38 H14         5.1520   -4.4910   -2.3150 h1        1 MOL      0.056959
     39 H15         3.8130   -3.1430   -3.8630 hc        1 MOL      0.076679
     40 H16         5.5750   -2.8390   -3.8090 hc        1 MOL      0.076679
     41 N4          5.4540   -2.3780    0.0100 n         1 MOL     -0.009176
     42 C14         6.2880   -2.0690    1.1910 c3        1 MOL     -0.235562
     43 C15         7.1210   -0.7880    0.9760 c         1 MOL      0.484586
     44 O9          7.9110   -0.4740    1.8240 o         1 MOL     -0.570561
     45 H17         4.4930   -2.0650    0.0050 hn        1 MOL      0.005567
     46 H18         6.9560   -2.8740    1.5020 h1        1 MOL      0.134039
     47 H19         5.6230   -1.9560    2.0500 h1        1 MOL      0.134039
     48 N5          6.9420   -0.0460   -0.1160 n         1 MOL     -0.157070
     49 C16         7.7390    1.1280   -0.3800 c3        1 MOL      0.072514
     50 C17         7.3630    2.2460    0.5320 c         1 MOL      0.396973
     51 O10         8.0550    3.2360    0.5820 o         1 MOL     -0.550431
     52 C18         7.9200    1.3860   -1.8760 c3        1 MOL     -0.217589
     53 C19         8.6430    0.3050   -2.6620 c         1 MOL      0.686987
     54 N6          8.0460   -0.7530   -3.1720 n         1 MOL     -0.784604
     55 O11         9.8420    0.4090   -2.9130 o         1 MOL     -0.625739
     56 H20         6.2800   -0.2860   -0.8330 hn        1 MOL      0.065925
     57 H21         8.7390    0.9150   -0.0100 h1        1 MOL      0.086665
     58 H22         8.6170    2.2180   -1.9990 hc        1 MOL      0.065136
     59 H23         6.9570    1.5580   -2.3490 hc        1 MOL      0.065136
     60 H24         7.0310   -0.7730   -3.1900 hn        1 MOL      0.357883
     61 H25         8.6550   -1.4160   -3.6230 hn        1 MOL      0.357883
     62 N7          6.2550    2.1510    1.2670 n         1 MOL     -0.103261
     63 C20         5.9400    3.0430    2.3880 c3        1 MOL     -0.107320
     64 C21         4.6050    3.8340    2.3150 c         1 MOL      0.544696
     65 O12         4.3960    4.7120    3.1440 o         1 MOL     -0.595283
     66 H26         5.6240    1.3830    1.1040 hn        1 MOL      0.099732
     67 H27         6.7230    3.7920    2.5290 h1        1 MOL      0.073570
     68 H28         5.8470    2.4700    3.3010 h1        1 MOL      0.073570
     69 N8          3.7460    3.4500    1.3940 n         1 MOL     -0.214455
     70 C22         2.4640    4.1740    1.2130 c3        1 MOL      0.167929
     71 C23         1.3480    3.1810    1.0590 c         1 MOL      0.398480
     72 O13         1.5910    2.0620    0.6560 o         1 MOL     -0.355848
     73 C24         2.5490    5.0470   -0.0170 c3        1 MOL      0.341690
     74 C25         1.4110    6.0140   -0.1570 c3        1 MOL     -0.336077
     75 O14         3.7370    5.8060   -0.1060 oh        1 MOL     -0.620320
     76 H29         3.9720    2.5970    0.9090 hn        1 MOL     -0.008199
     77 H30         2.3180    4.7950    2.1000 h1        1 MOL      0.035314
     78 H31         2.6770    4.3110   -0.8140 h1        1 MOL     -0.022869
     79 H32         3.6280    6.3750   -0.8760 ho        1 MOL      0.380094
     80 H33         1.5590    6.7900   -0.9150 hc        1 MOL      0.078417
     81 H34         0.4630    5.5400   -0.3780 hc        1 MOL      0.078417
     82 H35         1.3270    6.5960    0.7660 hc        1 MOL      0.078417
     83 N9          0.0810    3.4850    1.4680 n         1 MOL     -0.593733
     84 C26        -1.0550    2.5200    1.4480 c3        1 MOL      0.140911
     85 C27        -2.0390    2.8970    0.3480 c         1 MOL      0.537526
     86 O15        -2.4760    4.0700    0.3000 o         1 MOL     -0.584352
     87 C28        -1.6300    2.4380    2.8650 c3        1 MOL      0.244863
     88 C29        -0.7740    1.5050    3.7660 c3        1 MOL      0.069334
     89 C30        -3.1640    2.1830    2.9300 c3        1 MOL     -0.237598
     90 C31        -0.9530    1.7510    5.2670 c3        1 MOL     -0.180591
     91 H36        -0.1250    4.3690    1.9080 hn        1 MOL      0.290349
     92 H37        -0.5940    1.5680    1.1920 h1        1 MOL     -0.036339
     93 H38        -1.5810    3.4550    3.2510 hc        1 MOL     -0.041965
     94 H39         0.2380    1.7710    3.4590 hc        1 MOL      0.001665
     95 H40        -0.9470    0.4480    3.5780 hc        1 MOL      0.001665
     96 H41        -3.6230    3.0210    2.4030 hc        1 MOL      0.029164
     97 H42        -3.3710    1.2260    2.4560 hc        1 MOL      0.029164
     98 H43        -3.3910    2.2680    3.9960 hc        1 MOL      0.029164
     99 H44        -0.2910    1.1390    5.8700 hc        1 MOL      0.031384
    100 H45        -0.8780    2.7870    5.6090 hc        1 MOL      0.031384
    101 H46        -1.9900    1.4580    5.4660 hc        1 MOL      0.031384
    102 N10        -2.3860    1.8740   -0.4140 n         1 MOL     -0.317107
    103 C32        -3.5000    1.9830   -1.3640 c3        1 MOL      0.151768
    104 C33        -4.8230    1.5400   -0.7220 c         1 MOL      0.442766
    105 O16        -4.8360    1.0270    0.3120 o         1 MOL     -0.286895
    106 C34        -3.0010    1.1920   -2.6560 c3        1 MOL     -0.353215
    107 C35        -1.5740    1.5990   -3.1670 c         1 MOL      0.835241
    108 O17        -0.7450    0.7240   -3.1140 o         1 MOL     -0.712664
    109 O18        -1.4690    2.7570   -3.6590 o         1 MOL     -0.712664
    110 H47        -2.0180    0.9590   -0.2190 hn        1 MOL      0.160985
    111 H48        -3.5740    3.0230   -1.6610 h1        1 MOL      0.030180
    112 H49        -3.7520    1.3060   -3.4410 hc        1 MOL      0.069387
    113 H50        -3.0360    0.1380   -2.3620 hc        1 MOL      0.069387
    114 N11        -5.9870    1.7740   -1.4000 n         1 MOL     -0.669151
    115 C36        -7.2850    1.3310   -0.9540 c3        1 MOL      0.419629
    116 C37        -7.2910   -0.1640   -0.6500 c         1 MOL      0.322536
    117 O19        -7.5700   -0.5170    0.5120 o         1 MOL     -0.480154
    118 C38        -8.3710    1.9240   -1.9000 c3        1 MOL     -0.187329
    119 C39        -9.7690    1.5870   -1.3550 ca        1 MOL      0.047586
    120 C40       -10.1210    1.9830   -0.0680 ca        1 MOL     -0.139035
    121 C41       -10.6310    0.7070   -2.0510 ca        1 MOL     -0.139035
    122 C42       -11.3590    1.7870    0.5140 ca        1 MOL     -0.112669
    123 C43       -11.8770    0.4550   -1.5060 ca        1 MOL     -0.112669
    124 C44       -12.2380    0.9620   -0.2230 ca        1 MOL     -0.125052
    125 H51        -5.9590    2.4130   -2.1770 hn        1 MOL      0.312981
    126 H52        -7.3750    1.8110    0.0210 h1        1 MOL      0.026444
    127 H53        -8.3350    1.4660   -2.8870 hc        1 MOL      0.069878
    128 H54        -8.2970    3.0150   -1.9700 hc        1 MOL      0.069878
    129 H55        -9.4030    2.5460    0.5120 ha        1 MOL      0.103910
    130 H56       -10.3820    0.4230   -3.0660 ha        1 MOL      0.103910
    131 H57       -11.6890    2.1380    1.4840 ha        1 MOL      0.116838
    132 H58       -12.4770   -0.2380   -2.0800 ha        1 MOL      0.116838
    133 H59       -13.1520    0.5870    0.2130 ha        1 MOL      0.103712
    134 N12        -6.9840   -1.1140   -1.5900 n         1 MOL     -0.131174
    135 C45        -7.1060   -2.5330   -1.2370 c3        1 MOL      0.059423
    136 C46        -6.2140   -2.9590   -0.0250 c         1 MOL      0.322430
    137 O20        -6.3860   -4.0590    0.6020 o         1 MOL     -0.514400
    138 C47        -6.7570   -3.2920   -2.5280 c3        1 MOL     -0.175541
    139 C48        -5.9440   -2.2410   -3.3390 c3        1 MOL      0.031306
    140 C49        -6.7210   -0.9280   -3.0200 c3        1 MOL     -0.054585
    141 H60        -8.1370   -2.7840   -0.9810 h1        1 MOL      0.077919
    142 H61        -6.1220   -4.1840   -2.4700 hc        1 MOL      0.074815
    143 H62        -7.6990   -3.5090   -3.0270 hc        1 MOL      0.074815
    144 H63        -4.9310   -2.1610   -2.9520 hc        1 MOL      0.028359
    145 H64        -5.9370   -2.3860   -4.4120 hc        1 MOL      0.028359
    146 H65        -6.1240   -0.0440   -3.2390 h1        1 MOL      0.032523
    147 H66        -7.6710   -0.7150   -3.5090 h1        1 MOL      0.032523
    148 N13        -5.0680   -2.2960    0.2480 n         1 MOL     -0.219331
    149 C50        -4.1980   -2.4000    1.4530 c3        1 MOL      0.007902
    150 C51        -4.7430   -1.7670    2.6920 c         1 MOL      0.432684
    151 O21        -4.5760   -2.3750    3.7810 o         1 MOL     -0.583826
    152 C52        -2.8530   -1.7160    1.1370 c3        1 MOL     -0.003743
    153 C53        -2.1560   -2.2750   -0.1670 c3        1 MOL     -0.035728
    154 C54        -0.9140   -1.5130   -0.6020 c         1 MOL      0.801709
    155 O22        -0.6680   -0.3870   -0.1330 o         1 MOL     -0.756661
    156 O23        -0.1570   -1.9560   -1.4890 o         1 MOL     -0.756661
    157 H67        -4.8390   -1.5030   -0.3230 hn        1 MOL      0.235173
    158 H68        -4.0310   -3.4470    1.7140 h1        1 MOL      0.108520
    159 H69        -2.1240   -1.9080    1.9240 hc        1 MOL      0.021157
    160 H70        -2.9890   -0.6620    0.8910 hc        1 MOL      0.021157
    161 H71        -2.8510   -2.1620   -1.0040 hc        1 MOL     -0.009569
    162 H72        -1.9240   -3.3340   -0.0420 hc        1 MOL     -0.009569
    163 N14        -5.4210   -0.6440    2.6940 n         1 MOL      0.079463
    164 C55        -6.2580   -0.2580    3.8510 c3        1 MOL     -0.434176
    165 H73        -5.7020   -0.4280    4.7730 h1        1 MOL      0.142403
    166 H74        -6.5200    0.7970    3.7750 h1        1 MOL      0.142403
    167 H75        -7.1670   -0.8590    3.8590 h1        1 MOL      0.142403
    168 H76        -5.5690   -0.2720    1.7640 hn        1 MOL     -0.001296
    169 Ca1         1.3620    0.3970   -1.7450 Ca        1 MOL      1.745764
    170 O24         2.1340    1.2740   -4.4870 oh        1 MOL     -0.835246
    171 H77         2.2860    2.0560   -5.0260 ho        1 MOL      0.397186
    172 H78         2.6820    0.6030   -4.8880 ho        1 MOL      0.397186
    173 O25         0.8550    3.0400   -2.1620 oh        1 MOL     -0.835246
    174 H79         0.0020    3.2380   -2.5670 ho        1 MOL      0.397186
    175 H80         1.4330    3.7400   -2.4670 ho        1 MOL      0.397186
    176 O26         3.8780    1.5720   -1.4960 oh        1 MOL     -0.835246
    177 H81         4.1570    1.2900   -0.6190 ho        1 MOL      0.397186
    178 H82         4.5060    1.1720   -2.0900 ho        1 MOL      0.397186
@<TRIPOS>BOND
     1    1    2 1   
     2    1    4 1   
     3    1    5 1   
     4    1    6 1   
     5    2    3 2   
     6    2    7 1   
     7    7    8 1   
     8    7   15 1   
     9    8    9 1   
    10    8   11 1   
    11    8   16 1   
    12    9   10 2   
    13    9   19 1   
    14   11   12 1   
    15   11   17 1   
    16   11   18 1   
    17   12   13 1   
    18   12   14 1   
    19   19   20 1   
    20   19   24 1   
    21   20   21 1   
    22   20   23 1   
    23   20   25 1   
    24   21   22 2   
    25   21   29 1   
    26   23   26 1   
    27   23   27 1   
    28   23   28 1   
    29   29   30 1   
    30   29   37 1   
    31   30   31 1   
    32   30   33 1   
    33   30   38 1   
    34   31   32 2   
    35   31   41 1   
    36   33   34 1   
    37   33   39 1   
    38   33   40 1   
    39   34   35 1   
    40   34   36 1   
    41   41   42 1   
    42   41   45 1   
    43   42   43 1   
    44   42   46 1   
    45   42   47 1   
    46   43   44 2   
    47   43   48 1   
    48   48   49 1   
    49   48   56 1   
    50   49   50 1   
    51   49   52 1   
    52   49   57 1   
    53   50   51 2   
    54   50   62 1   
    55   52   53 1   
    56   52   58 1   
    57   52   59 1   
    58   53   54 1   
    59   53   55 2   
    60   54   60 1   
    61   54   61 1   
    62   62   63 1   
    63   62   66 1   
    64   63   64 1   
    65   63   67 1   
    66   63   68 1   
    67   64   65 2   
    68   64   69 1   
    69   69   70 1   
    70   69   76 1   
    71   70   71 1   
    72   70   73 1   
    73   70   77 1   
    74   71   72 2   
    75   71   83 1   
    76   73   74 1   
    77   73   75 1   
    78   73   78 1   
    79   74   80 1   
    80   74   81 1   
    81   74   82 1   
    82   75   79 1   
    83   83   84 1   
    84   83   91 1   
    85   84   85 1   
    86   84   87 1   
    87   84   92 1   
    88   85   86 2   
    89   85  102 1   
    90   87   88 1   
    91   87   89 1   
    92   87   93 1   
    93   88   90 1   
    94   88   94 1   
    95   88   95 1   
    96   89   96 1   
    97   89   97 1   
    98   89   98 1   
    99   90   99 1   
   100   90  100 1   
   101   90  101 1   
   102  102  103 1   
   103  102  110 1   
   104  103  104 1   
   105  103  106 1   
   106  103  111 1   
   107  104  105 2   
   108  104  114 1   
   109  106  107 1   
   110  106  112 1   
   111  106  113 1   
   112  107  108 1   
   113  107  109 1   
   114  114  115 1   
   115  114  125 1   
   116  115  116 1   
   117  115  118 1   
   118  115  126 1   
   119  116  117 2   
   120  116  134 1   
   121  118  119 1   
   122  118  127 1   
   123  118  128 1   
   124  119  120 ar  
   125  119  121 ar  
   126  120  122 ar  
   127  120  129 1   
   128  121  123 ar  
   129  121  130 1   
   130  122  124 ar  
   131  122  131 1   
   132  123  124 ar  
   133  123  132 1   
   134  124  133 1   
   135  134  135 1   
   136  134  140 1   
   137  135  136 1   
   138  135  138 1   
   139  135  141 1   
   140  136  137 2   
   141  136  148 1   
   142  138  139 1   
   143  138  142 1   
   144  138  143 1   
   145  139  140 1   
   146  139  144 1   
   147  139  145 1   
   148  140  146 1   
   149  140  147 1   
   150  148  149 1   
   151  148  157 1   
   152  149  150 1   
   153  149  152 1   
   154  149  158 1   
   155  150  151 2   
   156  150  163 1   
   157  152  153 1   
   158  152  159 1   
   159  152  160 1   
   160  153  154 1   
   161  153  161 1   
   162  153  162 1   
   163  154  155 1   
   164  154  156 1   
   165  163  164 1   
   166  163  168 1   
   167  164  165 1   
   168  164  166 1   
   169  164  167 1   
   170  170  171 1   
   171  170  172 1   
   172  173  174 1   
   173  173  175 1   
   174  176  177 1   
   175  176  178 1   
@<TRIPOS>SUBSTRUCTURE
     1 MOL         1 TEMP              0 ****  ****    0 ROOT
