@<TRIPOS>MOLECULE
MOL
  182   178     1     0     0
SMALL
resp


@<TRIPOS>ATOM
      1 C1          1.5640    3.2610    5.8470 c3        1 MOL     -0.320930
      2 C2          1.0980    3.0860    4.3690 c         1 MOL      0.735045
      3 O1          1.9400    3.2400    3.4530 o         1 MOL     -0.635033
      4 H1          1.2290    2.4080    6.4370 hc        1 MOL      0.085848
      5 H2          2.6530    3.3200    5.8820 hc        1 MOL      0.085848
      6 H3          1.1370    4.1760    6.2570 hc        1 MOL      0.085848
      7 N1         -0.1510    2.5930    4.0780 n         1 MOL     -0.625516
      8 C3         -0.5820    2.3880    2.7170 c3        1 MOL      0.127034
      9 C4         -0.8010    3.7570    1.9980 c         1 MOL      0.473356
     10 O2         -1.6350    4.5660    2.4160 o         1 MOL     -0.539594
     11 C5         -1.8580    1.6020    2.9170 c3        1 MOL     -0.207819
     12 C6         -2.6070    1.3230    1.5280 c         1 MOL      0.922314
     13 O3         -3.6020    0.6350    1.5020 o         1 MOL     -0.819523
     14 O4         -1.9460    1.5900    0.4900 o         1 MOL     -0.819523
     15 H4         -0.7950    2.4210    4.8380 hn        1 MOL      0.331337
     16 H5          0.0890    1.7360    2.1560 h1        1 MOL      0.022016
     17 H6         -2.4670    2.2280    3.5550 hc        1 MOL      0.044605
     18 H7         -1.6360    0.6090    3.3130 hc        1 MOL      0.044605
     19 N2         -0.0970    3.9910    0.9080 n         1 MOL     -0.142164
     20 C7         -0.0640    5.2250    0.1640 c3        1 MOL     -0.182947
     21 C8         -1.2530    5.5700   -0.7250 c         1 MOL      0.495688
     22 O5         -1.3870    6.6780   -1.2440 o         1 MOL     -0.564646
     23 C9          1.2280    5.3170   -0.7210 c3        1 MOL     -0.089932
     24 C10         2.6170    5.5780    0.0120 c3        1 MOL      0.099200
     25 C11         3.8350    5.8800   -0.8480 c3        1 MOL     -0.241940
     26 C12         5.0270    6.2020    0.1310 c3        1 MOL      0.088319
     27 N3          6.2290    6.3400   -0.6770 n4        1 MOL     -0.171873
     28 H8          0.4210    3.1850    0.6010 hn        1 MOL      0.153200
     29 H9         -0.1070    6.0080    0.9120 h1        1 MOL      0.127099
     30 H10         1.1480    6.1970   -1.3620 hc        1 MOL      0.059217
     31 H11         1.2700    4.4750   -1.4100 hc        1 MOL      0.059217
     32 H12         2.8550    4.6970    0.6140 hc        1 MOL      0.026921
     33 H13         2.3950    6.4140    0.6750 hc        1 MOL      0.026921
     34 H14         3.6040    6.7400   -1.4710 hc        1 MOL      0.072258
     35 H15         4.0090    4.9560   -1.4140 hc        1 MOL      0.072258
     36 H16         5.2090    5.4390    0.8870 hx        1 MOL      0.079336
     37 H17         4.8230    7.0810    0.7420 hx        1 MOL      0.079336
     38 H18         7.1550    6.3140   -0.2630 hn        1 MOL      0.275522
     39 H19         6.2050    5.7650   -1.5080 hn        1 MOL      0.275522
     40 H20         6.0590    7.2500   -1.0920 hn        1 MOL      0.275522
     41 N4         -2.1710    4.6260   -0.9500 n         1 MOL     -0.150736
     42 C13        -3.4470    4.8420   -1.5350 c3        1 MOL     -0.100073
     43 C14        -4.6840    4.4530   -0.7120 c         1 MOL      0.437750
     44 O6         -5.8090    4.5390   -1.2050 o         1 MOL     -0.502653
     45 C15        -3.4410    4.4320   -3.0460 c3        1 MOL     -0.230663
     46 C16        -3.1650    2.9890   -3.2760 c         1 MOL      0.710527
     47 O7         -3.5050    2.5650   -4.4230 o         1 MOL     -0.714658
     48 O8         -2.6610    2.2110   -2.4320 o         1 MOL     -0.714658
     49 H21        -2.0280    3.6760   -0.6380 hn        1 MOL      0.116141
     50 H22        -3.5520    5.9250   -1.4710 h1        1 MOL      0.122276
     51 H23        -2.7700    5.0970   -3.5790 hc        1 MOL      0.091111
     52 H24        -4.4340    4.5970   -3.4840 hc        1 MOL      0.091111
     53 N5         -4.4350    3.9850    0.5300 n         1 MOL     -0.259499
     54 C17        -5.4540    3.2620    1.3690 c3        1 MOL      0.005149
     55 C18        -6.3640    2.2510    0.6520 c         1 MOL      0.409571
     56 O9         -7.5490    2.2410    0.9470 o         1 MOL     -0.546986
     57 H25        -3.4980    4.0720    0.9090 hn        1 MOL      0.170180
     58 H26        -6.0710    4.0810    1.7380 h1        1 MOL      0.053301
     59 H27        -4.9430    2.8430    2.2390 h1        1 MOL      0.053301
     60 N6         -5.7950    1.4160   -0.1850 n         1 MOL     -0.056522
     61 C19        -6.5730    0.4020   -0.8280 c3        1 MOL     -0.063056
     62 C20        -6.7610   -0.9310    0.0070 c         1 MOL      0.303870
     63 O10        -7.4950   -1.7960   -0.4220 o         1 MOL     -0.440639
     64 C21        -6.0080    0.2300   -2.2350 c3        1 MOL     -0.315208
     65 C22        -4.6740   -0.5160   -2.2170 c         1 MOL      0.809895
     66 N7         -4.6620   -1.5130   -3.0820 n         1 MOL     -0.746331
     67 O11        -3.7210   -0.4510   -1.4210 o         1 MOL     -0.708519
     68 H28        -4.8090    1.2060   -0.1090 hn        1 MOL      0.189332
     69 H29        -7.5580    0.8680   -0.8860 h1        1 MOL      0.145770
     70 H30        -5.7280    1.2440   -2.5290 hc        1 MOL      0.118374
     71 H31        -6.7730   -0.2790   -2.8150 hc        1 MOL      0.118374
     72 H32        -5.4690   -1.8140   -3.6070 hn        1 MOL      0.357953
     73 H33        -3.7990   -2.0450   -3.0730 hn        1 MOL      0.357953
     74 N8         -6.1940   -1.0210    1.2270 n         1 MOL     -0.223686
     75 C23        -6.1160   -2.1880    2.0870 c3        1 MOL     -0.199245
     76 C24        -4.8020   -2.8950    2.1590 c         1 MOL      0.628192
     77 O12        -4.6840   -3.9390    2.8250 o         1 MOL     -0.567863
     78 H34        -5.6830   -0.1860    1.4870 hn        1 MOL      0.231052
     79 H35        -6.8370   -2.9060    1.7130 h1        1 MOL      0.127449
     80 H36        -6.4490   -1.9940    3.1120 h1        1 MOL      0.127449
     81 N9         -3.7810   -2.3500    1.4530 n         1 MOL     -0.700319
     82 C25        -2.6360   -3.2610    1.0090 c3        1 MOL      0.317673
     83 C26        -1.3280   -2.5060    0.9190 c         1 MOL      0.446688
     84 O13        -1.2700   -1.4450    0.3100 o         1 MOL     -0.527028
     85 C27        -2.8960   -4.0520   -0.2630 c3        1 MOL     -0.002797
     86 C28        -4.1460   -4.8870   -0.1410 ca        1 MOL     -0.146983
     87 C29        -5.4010   -4.4380   -0.6280 ca        1 MOL     -0.039052
     88 C30        -4.0800   -6.2000    0.4100 ca        1 MOL     -0.039052
     89 C31        -6.5290   -5.2730   -0.6190 ca        1 MOL     -0.290735
     90 C32        -5.1780   -7.0860    0.2570 ca        1 MOL     -0.290735
     91 C33        -6.3850   -6.5870   -0.2190 ca        1 MOL      0.375986
     92 O14        -7.4570   -7.4210   -0.4900 oh        1 MOL     -0.470422
     93 H37        -3.8200   -1.4020    1.0980 hn        1 MOL      0.516885
     94 H38        -2.4120   -3.9110    1.8560 h1        1 MOL      0.013868
     95 H39        -2.0160   -4.6230   -0.5720 hc        1 MOL      0.018492
     96 H40        -2.9280   -3.3320   -1.0730 hc        1 MOL      0.018492
     97 H41        -5.4520   -3.4320   -1.0170 ha        1 MOL      0.084183
     98 H42        -3.0870   -6.4810    0.7540 ha        1 MOL      0.084183
     99 H43        -7.5030   -4.8950   -0.9150 ha        1 MOL      0.148778
    100 H44        -5.0910   -8.1440    0.4400 ha        1 MOL      0.148778
    101 H45        -7.2440   -8.2080    0.0250 ho        1 MOL      0.328359
    102 N10        -0.2770   -3.1770    1.4400 n         1 MOL     -0.523845
    103 C34         1.1140   -2.7470    1.4820 c3        1 MOL      0.085688
    104 C35         2.0360   -3.6170    0.5570 c         1 MOL      0.392322
    105 O15         2.3420   -4.7920    0.8170 o         1 MOL     -0.491583
    106 C36         1.5920   -2.6000    2.9490 c3        1 MOL      0.097347
    107 C37         0.6760   -1.5300    3.7150 c3        1 MOL      0.094029
    108 C38         3.0170   -2.1800    3.0850 c3        1 MOL     -0.137246
    109 C39         0.9350   -1.3020    5.2440 c3        1 MOL     -0.143251
    110 H46        -0.5780   -4.0700    1.8040 hn        1 MOL      0.308312
    111 H47         1.1140   -1.7530    1.0140 h1        1 MOL     -0.050260
    112 H48         1.4110   -3.5460    3.4480 hc        1 MOL      0.014137
    113 H49        -0.3360   -1.9360    3.6670 hc        1 MOL      0.014855
    114 H50         0.7800   -0.5360    3.2680 hc        1 MOL      0.014855
    115 H51         3.1100   -1.1310    2.8260 hc        1 MOL      0.013367
    116 H52         3.4470   -2.4380    4.0600 hc        1 MOL      0.013367
    117 H53         3.6940   -2.6130    2.3430 hc        1 MOL      0.013367
    118 H54         1.8510   -0.7370    5.4130 hc        1 MOL      0.031647
    119 H55         0.1390   -0.7390    5.7060 hc        1 MOL      0.031647
    120 H56         0.9080   -2.2470    5.7880 hc        1 MOL      0.031647
    121 N11         2.5280   -2.9050   -0.5140 n         1 MOL     -0.145200
    122 C40         3.4840   -3.3440   -1.5450 c3        1 MOL     -0.199717
    123 C41         4.8840   -3.4020   -0.9520 c         1 MOL      0.385574
    124 O16         5.1900   -2.8240    0.1160 o         1 MOL     -0.310598
    125 C42         3.4870   -2.6150   -2.8830 c3        1 MOL     -0.012319
    126 O17         3.7030   -1.2030   -2.7960 oh        1 MOL     -0.459914
    127 H57         2.1500   -1.9710   -0.5490 hn        1 MOL      0.307160
    128 H58         3.2460   -4.3880   -1.7770 h1        1 MOL      0.114599
    129 H59         2.5680   -2.8070   -3.4250 h1        1 MOL      0.085598
    130 H60         4.3410   -2.9860   -3.4450 h1        1 MOL      0.085598
    131 H61         3.0770   -0.8650   -2.1450 ho        1 MOL      0.259985
    132 N12         5.8770   -4.1810   -1.4240 n         1 MOL     -0.357756
    133 C43         7.2500   -4.2170   -0.8990 c3        1 MOL      0.035311
    134 C44         7.9540   -2.8700   -1.0870 c         1 MOL      0.605441
    135 O18         8.7370   -2.4520   -0.2820 o         1 MOL     -0.514204
    136 C45         8.1100   -5.3150   -1.5600 c3        1 MOL     -0.255556
    137 H62         5.6850   -4.7980   -2.2080 hn        1 MOL      0.278716
    138 H63         7.3290   -4.4290    0.1720 h1        1 MOL      0.111387
    139 H64         7.7010   -6.3090   -1.4160 hc        1 MOL      0.082806
    140 H65         8.0620   -5.2410   -2.6480 hc        1 MOL      0.082806
    141 H66         9.1210   -5.2130   -1.1750 hc        1 MOL      0.082806
    142 N13         7.5480   -2.1000   -2.1200 n         1 MOL     -0.637848
    143 C46         7.9790   -0.6800   -2.1550 c3        1 MOL      0.375501
    144 C47         7.3000    0.1560   -0.9770 c         1 MOL      0.239755
    145 O19         8.0670    0.8810   -0.3340 o         1 MOL     -0.489717
    146 C48         7.6570   -0.0170   -3.5090 c3        1 MOL     -0.287626
    147 H67         6.9260   -2.4520   -2.8250 hn        1 MOL      0.324061
    148 H68         9.0500   -0.5860   -2.0420 h1        1 MOL      0.039010
    149 H69         8.1040    0.9810   -3.4760 hc        1 MOL      0.069302
    150 H70         8.1840   -0.5720   -4.2860 hc        1 MOL      0.069302
    151 H71         6.5750    0.0090   -3.6520 hc        1 MOL      0.069302
    152 N14         6.0240    0.0170   -0.6410 n         1 MOL     -0.084695
    153 C49         5.4010    0.6490    0.5280 c3        1 MOL     -0.088362
    154 C50         6.0080    0.1750    1.8780 c         1 MOL      0.389592
    155 O20         6.3240    0.9330    2.7890 o         1 MOL     -0.557961
    156 C51         3.8910    0.4440    0.5770 c3        1 MOL     -0.121843
    157 C52         3.1960    1.1930   -0.5940 c3        1 MOL     -0.014004
    158 C53         1.7310    0.7640   -0.7590 c         1 MOL      0.565290
    159 O21         1.4330   -0.2370   -1.4300 o         1 MOL     -0.586847
    160 O22         0.8430    1.5320   -0.3300 o         1 MOL     -0.586847
    161 H72         5.4700   -0.6810   -1.1120 hn        1 MOL      0.105365
    162 H73         5.5920    1.7160    0.4780 h1        1 MOL      0.095491
    163 H74         3.5150    0.8010    1.5360 hc        1 MOL      0.126360
    164 H75         3.6070   -0.5980    0.4010 hc        1 MOL      0.126360
    165 H76         3.7000    0.9840   -1.5350 hc        1 MOL     -0.015453
    166 H77         3.3000    2.2600   -0.4260 hc        1 MOL     -0.015453
    167 N15         6.4210   -1.0780    1.9340 n         1 MOL      0.168132
    168 C54         7.2230   -1.7180    2.9750 c3        1 MOL     -0.336786
    169 H78         6.7520   -1.5590    3.9450 h1        1 MOL      0.119810
    170 H79         7.2910   -2.7880    2.7750 h1        1 MOL      0.119810
    171 H80         8.2240   -1.2850    2.9810 h1        1 MOL      0.119810
    172 H81         6.0670   -1.5450    1.1020 hn        1 MOL     -0.087366
    173 Ca1        -1.0970    0.4480   -1.6290 Ca        1 MOL      1.781443
    174 O23         0.2080    1.7650   -3.4190 oh        1 MOL     -0.877099
    175 H82         0.8360    2.4840   -3.3530 ho        1 MOL      0.412201
    176 H83         0.1140    1.6120   -4.3540 ho        1 MOL      0.412201
    177 O24        -2.0530   -0.1570   -4.1630 oh        1 MOL     -0.877099
    178 H84        -1.2410   -0.1070   -4.6800 ho        1 MOL      0.412201
    179 H85        -2.5440    0.6130   -4.4310 ho        1 MOL      0.412201
    180 O25        -0.1650   -2.2480   -2.6090 oh        1 MOL     -0.877099
    181 H86        -0.7610   -3.0000   -2.6610 ho        1 MOL      0.412201
    182 H87         0.4580   -2.3940   -3.3200 ho        1 MOL      0.412201
@<TRIPOS>BOND
     1    1    2 1   
     2    1    4 1   
     3    1    5 1   
     4    1    6 1   
     5    2    3 2   
     6    2    7 1   
     7    7    8 1   
     8    7   15 1   
     9    8    9 1   
    10    8   11 1   
    11    8   16 1   
    12    9   10 2   
    13    9   19 1   
    14   11   12 1   
    15   11   17 1   
    16   11   18 1   
    17   12   13 1   
    18   12   14 1   
    19   19   20 1   
    20   19   28 1   
    21   20   21 1   
    22   20   23 1   
    23   20   29 1   
    24   21   22 2   
    25   21   41 1   
    26   23   24 1   
    27   23   30 1   
    28   23   31 1   
    29   24   25 1   
    30   24   32 1   
    31   24   33 1   
    32   25   26 1   
    33   25   34 1   
    34   25   35 1   
    35   26   27 1   
    36   26   36 1   
    37   26   37 1   
    38   27   38 1   
    39   27   39 1   
    40   27   40 1   
    41   41   42 1   
    42   41   49 1   
    43   42   43 1   
    44   42   45 1   
    45   42   50 1   
    46   43   44 2   
    47   43   53 1   
    48   45   46 1   
    49   45   51 1   
    50   45   52 1   
    51   46   47 1   
    52   46   48 1   
    53   53   54 1   
    54   53   57 1   
    55   54   55 1   
    56   54   58 1   
    57   54   59 1   
    58   55   56 2   
    59   55   60 1   
    60   60   61 1   
    61   60   68 1   
    62   61   62 1   
    63   61   64 1   
    64   61   69 1   
    65   62   63 2   
    66   62   74 1   
    67   64   65 1   
    68   64   70 1   
    69   64   71 1   
    70   65   66 1   
    71   65   67 2   
    72   66   72 1   
    73   66   73 1   
    74   74   75 1   
    75   74   78 1   
    76   75   76 1   
    77   75   79 1   
    78   75   80 1   
    79   76   77 2   
    80   76   81 1   
    81   81   82 1   
    82   81   93 1   
    83   82   83 1   
    84   82   85 1   
    85   82   94 1   
    86   83   84 2   
    87   83  102 1   
    88   85   86 1   
    89   85   95 1   
    90   85   96 1   
    91   86   87 ar  
    92   86   88 ar  
    93   87   89 ar  
    94   87   97 1   
    95   88   90 ar  
    96   88   98 1   
    97   89   91 ar  
    98   89   99 1   
    99   90   91 ar  
   100   90  100 1   
   101   91   92 1   
   102   92  101 1   
   103  102  103 1   
   104  102  110 1   
   105  103  104 1   
   106  103  106 1   
   107  103  111 1   
   108  104  105 2   
   109  104  121 1   
   110  106  107 1   
   111  106  108 1   
   112  106  112 1   
   113  107  109 1   
   114  107  113 1   
   115  107  114 1   
   116  108  115 1   
   117  108  116 1   
   118  108  117 1   
   119  109  118 1   
   120  109  119 1   
   121  109  120 1   
   122  121  122 1   
   123  121  127 1   
   124  122  123 1   
   125  122  125 1   
   126  122  128 1   
   127  123  124 2   
   128  123  132 1   
   129  125  126 1   
   130  125  129 1   
   131  125  130 1   
   132  126  131 1   
   133  132  133 1   
   134  132  137 1   
   135  133  134 1   
   136  133  136 1   
   137  133  138 1   
   138  134  135 2   
   139  134  142 1   
   140  136  139 1   
   141  136  140 1   
   142  136  141 1   
   143  142  143 1   
   144  142  147 1   
   145  143  144 1   
   146  143  146 1   
   147  143  148 1   
   148  144  145 2   
   149  144  152 1   
   150  146  149 1   
   151  146  150 1   
   152  146  151 1   
   153  152  153 1   
   154  152  161 1   
   155  153  154 1   
   156  153  156 1   
   157  153  162 1   
   158  154  155 2   
   159  154  167 1   
   160  156  157 1   
   161  156  163 1   
   162  156  164 1   
   163  157  158 1   
   164  157  165 1   
   165  157  166 1   
   166  158  159 1   
   167  158  160 1   
   168  167  168 1   
   169  167  172 1   
   170  168  169 1   
   171  168  170 1   
   172  168  171 1   
   173  174  175 1   
   174  174  176 1   
   175  177  178 1   
   176  177  179 1   
   177  180  181 1   
   178  180  182 1   
@<TRIPOS>SUBSTRUCTURE
     1 MOL         1 TEMP              0 ****  ****    0 ROOT
