@<TRIPOS>MOLECULE
MOL
  175   173     1     0     0
SMALL
resp


@<TRIPOS>ATOM
      1 C1          0.2840    3.5220    5.7990 c3        1 MOL     -0.503713
      2 C2         -0.2730    3.6400    4.3960 c         1 MOL      0.660250
      3 O1          0.4250    3.8710    3.3600 o         1 MOL     -0.547363
      4 H1         -0.5320    3.3420    6.4990 hc        1 MOL      0.133837
      5 H2          0.9890    2.6920    5.8430 hc        1 MOL      0.133837
      6 H3          0.7940    4.4470    6.0670 hc        1 MOL      0.133837
      7 N1         -1.5960    3.6120    4.1640 n         1 MOL     -0.557440
      8 C3         -2.2520    3.4150    2.8430 c3        1 MOL      0.006998
      9 C4         -2.3500    4.6500    2.0370 c         1 MOL      0.776071
     10 O2         -2.7170    5.7190    2.5400 o         1 MOL     -0.609116
     11 C5         -3.6460    2.8960    3.1450 c3        1 MOL     -0.317322
     12 C6         -4.3050    2.1680    1.9450 c         1 MOL      0.895197
     13 O3         -3.5130    1.8360    0.9970 o         1 MOL     -0.694839
     14 O4         -5.4740    1.8330    2.1030 o         1 MOL     -0.694839
     15 H4         -2.1770    3.5950    4.9870 hn        1 MOL      0.312741
     16 H5         -1.6530    2.6750    2.3100 h1        1 MOL      0.133854
     17 H6         -4.2090    3.7410    3.5480 hc        1 MOL      0.055635
     18 H7         -3.5730    2.1390    3.9310 hc        1 MOL      0.055635
     19 N2         -2.2090    4.4840    0.7170 n         1 MOL     -0.743659
     20 C7         -2.3630    5.5060   -0.3100 c3        1 MOL      0.416680
     21 C8         -3.2740    5.2020   -1.5450 c         1 MOL      0.433611
     22 O5         -3.4460    6.0640   -2.4240 o         1 MOL     -0.557514
     23 C9         -1.0060    5.8410   -0.8230 c3        1 MOL     -0.269254
     24 H8         -2.1100    3.5460    0.3450 hn        1 MOL      0.405427
     25 H9         -2.8440    6.4190    0.0620 h1        1 MOL     -0.022215
     26 H10        -0.3380    6.1450   -0.0160 hc        1 MOL      0.061794
     27 H11        -0.6440    4.9870   -1.4020 hc        1 MOL      0.061794
     28 H12        -1.0370    6.6900   -1.5040 hc        1 MOL      0.061794
     29 N3         -3.8600    3.9850   -1.5850 n         1 MOL     -0.375419
     30 C10        -4.6260    3.4130   -2.6520 c3        1 MOL      0.233679
     31 C11        -5.8920    2.6950   -2.1800 c         1 MOL      0.360336
     32 O6         -6.8260    2.6750   -2.9170 o         1 MOL     -0.537765
     33 C12        -3.7420    2.5920   -3.6000 c3        1 MOL     -0.279361
     34 C13        -3.1320    1.4090   -2.8560 c         1 MOL      0.686734
     35 O7         -3.8210    0.8050   -1.9810 o         1 MOL     -0.688671
     36 O8         -1.9560    0.9840   -2.9910 o         1 MOL     -0.688671
     37 H13        -3.7900    3.4850   -0.7090 hn        1 MOL      0.153796
     38 H14        -4.8060    4.2600   -3.3140 h1        1 MOL      0.035928
     39 H15        -2.9460    3.2620   -3.9190 hc        1 MOL      0.080932
     40 H16        -4.3280    2.2670   -4.4530 hc        1 MOL      0.080932
     41 N4         -5.9000    2.1640   -0.9270 n         1 MOL     -0.111836
     42 C14        -7.0490    1.4440   -0.3570 c3        1 MOL     -0.290256
     43 C15        -7.1950   -0.0580   -0.8800 c         1 MOL      0.526846
     44 O9         -8.1730   -0.6600   -0.5520 o         1 MOL     -0.613900
     45 H17        -5.0540    2.0390   -0.3840 hn        1 MOL     -0.010036
     46 H18        -7.9910    1.9680   -0.5190 h1        1 MOL      0.150497
     47 H19        -7.0040    1.3680    0.7360 h1        1 MOL      0.150497
     48 N5         -6.1980   -0.6620   -1.5420 n         1 MOL     -0.299966
     49 C16        -6.3020   -1.9720   -2.1880 c3        1 MOL      0.087868
     50 C17        -6.2860   -3.1090   -1.2010 c         1 MOL      0.432928
     51 O10        -6.2770   -4.2030   -1.6450 o         1 MOL     -0.542236
     52 C18        -5.1230   -2.0900   -3.2180 c3        1 MOL     -0.377828
     53 C19        -3.7780   -1.9110   -2.5900 c         1 MOL      0.640129
     54 N6         -2.7750   -1.8430   -3.4380 n         1 MOL     -0.612360
     55 O11        -3.4460   -1.9810   -1.3720 o         1 MOL     -0.533878
     56 H20        -5.3430   -0.1190   -1.6000 hn        1 MOL      0.258672
     57 H21        -7.2610   -1.9910   -2.6980 h1        1 MOL      0.080324
     58 H22        -5.1480   -1.2570   -3.9130 hc        1 MOL      0.111239
     59 H23        -5.1580   -3.0680   -3.7060 hc        1 MOL      0.111239
     60 H24        -2.9500   -1.8270   -4.4330 hn        1 MOL      0.314700
     61 H25        -1.8420   -1.6450   -3.1190 hn        1 MOL      0.314700
     62 N7         -6.0750   -2.8740    0.0980 n         1 MOL     -0.223333
     63 C20        -6.0230   -3.8420    1.1940 c3        1 MOL     -0.195242
     64 C21        -4.7240   -4.5570    1.4870 c         1 MOL      0.611002
     65 O12        -4.6540   -5.2280    2.4770 o         1 MOL     -0.600147
     66 H26        -6.0800   -1.9330    0.4470 hn        1 MOL      0.273739
     67 H27        -6.7910   -4.5830    0.9810 h1        1 MOL      0.090003
     68 H28        -6.4020   -3.4310    2.1370 h1        1 MOL      0.090003
     69 N8         -3.7110   -4.3180    0.6490 n         1 MOL     -0.499458
     70 C22        -2.2770   -4.7550    0.9540 c3        1 MOL      0.128053
     71 C23        -1.3500   -3.5650    1.2440 c         1 MOL      0.465128
     72 O13        -1.5890   -2.4530    0.7710 o         1 MOL     -0.410722
     73 C24        -1.6960   -5.5310   -0.2670 c3        1 MOL      0.429045
     74 C25        -2.1570   -6.9570   -0.3400 c3        1 MOL     -0.294557
     75 O14        -1.9530   -4.8230   -1.4910 oh        1 MOL     -0.559790
     76 H29        -3.9050   -3.6330   -0.0770 hn        1 MOL      0.321594
     77 H30        -2.2730   -5.4050    1.8410 h1        1 MOL      0.028951
     78 H31        -0.6580   -5.5820    0.0490 h1        1 MOL     -0.069190
     79 H32        -1.3350   -4.0890   -1.4850 ho        1 MOL      0.312968
     80 H33        -1.7400   -7.4070   -1.2370 hc        1 MOL      0.065872
     81 H34        -1.9050   -7.5900    0.5160 hc        1 MOL      0.065872
     82 H35        -3.2210   -7.0860   -0.5170 hc        1 MOL      0.065872
     83 N9         -0.3440   -3.7920    2.0780 n         1 MOL     -0.532719
     84 C26         0.8940   -2.9410    2.0060 c3        1 MOL      0.050094
     85 C27         1.5360   -3.0690    0.6010 c         1 MOL      0.383441
     86 O15         1.6890   -4.1970    0.0800 o         1 MOL     -0.546472
     87 C28         1.9800   -3.4260    2.9820 c3        1 MOL      0.231675
     88 C29         1.3940   -3.2110    4.3230 c3        1 MOL     -0.067639
     89 C30         3.2440   -2.6110    2.8780 c3        1 MOL     -0.154765
     90 C31         2.2290   -3.7110    5.4950 c3        1 MOL     -0.107245
     91 H36        -0.2410   -4.7480    2.3710 hn        1 MOL      0.292591
     92 H37         0.6130   -1.9250    2.2650 h1        1 MOL      0.004768
     93 H38         2.1730   -4.4880    2.7900 hc        1 MOL     -0.034123
     94 H39         0.3930   -3.6530    4.3490 hc        1 MOL      0.036035
     95 H40         1.2600   -2.1580    4.5730 hc        1 MOL      0.036035
     96 H41         2.9070   -1.5880    3.0330 hc        1 MOL      0.022695
     97 H42         3.9200   -2.9510    3.6650 hc        1 MOL      0.022695
     98 H43         3.7270   -2.7060    1.9030 hc        1 MOL      0.022695
     99 H44         3.0650   -3.0760    5.7730 hc        1 MOL      0.018475
    100 H45         1.5200   -3.7060    6.3260 hc        1 MOL      0.018475
    101 H46         2.6590   -4.7140    5.4650 hc        1 MOL      0.018475
    102 N10         2.0030   -1.9600   -0.0840 n         1 MOL     -0.025616
    103 C32         2.7420   -1.9650   -1.2940 c3        1 MOL     -0.008793
    104 C33         4.1550   -1.4980   -1.0050 c         1 MOL      0.648528
    105 O16         4.3790   -1.0010    0.0910 o         1 MOL     -0.440824
    106 C34         2.0550   -1.0240   -2.3080 c3        1 MOL     -0.473312
    107 C35         0.5510   -1.3860   -2.5190 c         1 MOL      0.858591
    108 O17        -0.3180   -1.0470   -1.6980 o         1 MOL     -0.703656
    109 O18         0.2400   -1.8470   -3.6390 o         1 MOL     -0.703656
    110 H47         1.6050   -1.0960    0.2550 hn        1 MOL      0.029727
    111 H48         2.8320   -2.9850   -1.6640 h1        1 MOL      0.065061
    112 H49         2.6370   -0.9700   -3.2290 hc        1 MOL      0.149411
    113 H50         2.1520   -0.0200   -1.9050 hc        1 MOL      0.149411
    114 N11         5.1780   -1.7000   -1.8930 n         1 MOL     -0.846152
    115 C36         6.5450   -1.2100   -1.5180 c3        1 MOL      0.562818
    116 C37         6.4730    0.4120   -1.2640 c         1 MOL      0.290702
    117 O19         7.0570    0.8280   -0.2690 o         1 MOL     -0.482071
    118 C38         7.6950   -1.6720   -2.4290 c3        1 MOL     -0.402838
    119 C39         9.0790   -1.2940   -1.9410 ca        1 MOL      0.232756
    120 C40         9.5810   -1.6890   -0.7110 ca        1 MOL     -0.241213
    121 C41         9.9230   -0.5670   -2.8060 ca        1 MOL     -0.241213
    122 C42        10.9130   -1.3840   -0.3060 ca        1 MOL     -0.076742
    123 C43        11.2140   -0.1270   -2.3680 ca        1 MOL     -0.076742
    124 C44        11.6940   -0.5440   -1.1640 ca        1 MOL     -0.123097
    125 H51         5.0650   -2.2780   -2.7080 hn        1 MOL      0.379316
    126 H52         6.7320   -1.6460   -0.5330 h1        1 MOL      0.018336
    127 H53         7.6150   -1.1100   -3.3590 hc        1 MOL      0.102874
    128 H54         7.5210   -2.7310   -2.6240 hc        1 MOL      0.102874
    129 H55         8.9540   -2.2710   -0.0630 ha        1 MOL      0.133651
    130 H56         9.5510   -0.2730   -3.7730 ha        1 MOL      0.133651
    131 H57        11.3520   -1.8320    0.5780 ha        1 MOL      0.106519
    132 H58        11.8480    0.4950   -2.9800 ha        1 MOL      0.106519
    133 H59        12.7180   -0.3180   -0.9390 ha        1 MOL      0.095829
    134 N12         5.7900    1.3060   -2.0070 n         1 MOL     -0.113605
    135 C45         5.6220    2.7330   -1.5730 c3        1 MOL      0.038051
    136 C46         4.9290    2.9430   -0.2270 c         1 MOL      0.411669
    137 O20         4.4890    4.0470    0.0210 o         1 MOL     -0.533431
    138 C47         4.8390    3.2660   -2.8140 c3        1 MOL     -0.298646
    139 C48         5.1650    2.4720   -4.0550 c3        1 MOL      0.083103
    140 C49         5.4180    1.1000   -3.4260 c3        1 MOL      0.205297
    141 H60         6.5870    3.2340   -1.4860 h1        1 MOL      0.071905
    142 H61         3.7810    3.0950   -2.6610 hc        1 MOL      0.113105
    143 H62         4.8960    4.3500   -2.9180 hc        1 MOL      0.113105
    144 H63         4.4340    2.3750   -4.8580 hc        1 MOL      0.001169
    145 H64         6.0580    2.8260   -4.5590 hc        1 MOL      0.001169
    146 H65         4.5460    0.4580   -3.5170 h1        1 MOL     -0.054168
    147 H66         6.2100    0.6460   -4.0270 h1        1 MOL     -0.054168
    148 N13         4.6790    1.9180    0.5760 n         1 MOL     -0.122210
    149 C50         3.9370    1.9590    1.8780 c3        1 MOL     -0.006154
    150 C51         4.7020    1.2770    2.9410 c         1 MOL      0.387164
    151 O21         4.6520    1.7200    4.1050 o         1 MOL     -0.555937
    152 C52         2.5540    1.2150    1.7360 c3        1 MOL      0.077458
    153 C53         1.6090    2.0450    0.8320 c3        1 MOL     -0.311305
    154 C54         0.2620    1.4580    0.6720 c         1 MOL      0.639501
    155 O22        -0.5920    2.0670    0.0210 o         1 MOL     -0.679890
    156 O23         0.0280    0.2490    1.0290 o         1 MOL     -0.679890
    157 H67         4.9900    1.0410    0.1840 hn        1 MOL     -0.031350
    158 H68         3.6790    2.9580    2.2160 h1        1 MOL      0.109560
    159 H69         2.1030    1.2310    2.7230 hc        1 MOL      0.028516
    160 H70         2.6310    0.2210    1.2900 hc        1 MOL      0.028516
    161 H71         2.0370    2.0850   -0.1650 hc        1 MOL      0.126130
    162 H72         1.5180    3.0110    1.3180 hc        1 MOL      0.126130
    163 N14         5.4900    0.2610    2.5790 n         1 MOL      0.004990
    164 C55         6.4980   -0.2830    3.5000 c3        1 MOL     -0.296171
    165 H73         6.0100   -0.9240    4.2350 h1        1 MOL      0.102916
    166 H74         7.2280   -0.8650    2.9390 h1        1 MOL      0.102916
    167 H75         7.0020    0.5370    4.0130 h1        1 MOL      0.102916
    168 H76         5.5830    0.1360    1.5770 hn        1 MOL      0.078091
    169 Ca1        -2.2180   -0.0800   -0.2310 Ca        1 MOL      1.680976
    170 O24        -4.4810   -0.7860    1.4790 oh        1 MOL     -0.896810
    171 H77        -3.7070   -0.8380    2.0390 ho        1 MOL      0.423296
    172 H78        -4.9920   -0.0510    1.8330 ho        1 MOL      0.423296
    173 O25        -2.1000   -0.3570    2.5570 oh        1 MOL     -0.896810
    174 H79        -2.0610   -0.0080    3.4460 ho        1 MOL      0.423296
    175 H80        -1.1840   -0.4640    2.3040 ho        1 MOL      0.423296
@<TRIPOS>BOND
     1    1    2 1   
     2    1    4 1   
     3    1    5 1   
     4    1    6 1   
     5    2    3 2   
     6    2    7 1   
     7    7    8 1   
     8    7   15 1   
     9    8    9 1   
    10    8   11 1   
    11    8   16 1   
    12    9   10 2   
    13    9   19 1   
    14   11   12 1   
    15   11   17 1   
    16   11   18 1   
    17   12   13 1   
    18   12   14 1   
    19   19   20 1   
    20   19   24 1   
    21   20   21 1   
    22   20   23 1   
    23   20   25 1   
    24   21   22 2   
    25   21   29 1   
    26   23   26 1   
    27   23   27 1   
    28   23   28 1   
    29   29   30 1   
    30   29   37 1   
    31   30   31 1   
    32   30   33 1   
    33   30   38 1   
    34   31   32 2   
    35   31   41 1   
    36   33   34 1   
    37   33   39 1   
    38   33   40 1   
    39   34   35 1   
    40   34   36 1   
    41   41   42 1   
    42   41   45 1   
    43   42   43 1   
    44   42   46 1   
    45   42   47 1   
    46   43   44 2   
    47   43   48 1   
    48   48   49 1   
    49   48   56 1   
    50   49   50 1   
    51   49   52 1   
    52   49   57 1   
    53   50   51 2   
    54   50   62 1   
    55   52   53 1   
    56   52   58 1   
    57   52   59 1   
    58   53   54 1   
    59   53   55 2   
    60   54   60 1   
    61   54   61 1   
    62   62   63 1   
    63   62   66 1   
    64   63   64 1   
    65   63   67 1   
    66   63   68 1   
    67   64   65 2   
    68   64   69 1   
    69   69   70 1   
    70   69   76 1   
    71   70   71 1   
    72   70   73 1   
    73   70   77 1   
    74   71   72 2   
    75   71   83 1   
    76   73   74 1   
    77   73   75 1   
    78   73   78 1   
    79   74   80 1   
    80   74   81 1   
    81   74   82 1   
    82   75   79 1   
    83   83   84 1   
    84   83   91 1   
    85   84   85 1   
    86   84   87 1   
    87   84   92 1   
    88   85   86 2   
    89   85  102 1   
    90   87   88 1   
    91   87   89 1   
    92   87   93 1   
    93   88   90 1   
    94   88   94 1   
    95   88   95 1   
    96   89   96 1   
    97   89   97 1   
    98   89   98 1   
    99   90   99 1   
   100   90  100 1   
   101   90  101 1   
   102  102  103 1   
   103  102  110 1   
   104  103  104 1   
   105  103  106 1   
   106  103  111 1   
   107  104  105 2   
   108  104  114 1   
   109  106  107 1   
   110  106  112 1   
   111  106  113 1   
   112  107  108 1   
   113  107  109 1   
   114  114  115 1   
   115  114  125 1   
   116  115  116 1   
   117  115  118 1   
   118  115  126 1   
   119  116  117 2   
   120  116  134 1   
   121  118  119 1   
   122  118  127 1   
   123  118  128 1   
   124  119  120 ar  
   125  119  121 ar  
   126  120  122 ar  
   127  120  129 1   
   128  121  123 ar  
   129  121  130 1   
   130  122  124 ar  
   131  122  131 1   
   132  123  124 ar  
   133  123  132 1   
   134  124  133 1   
   135  134  135 1   
   136  134  140 1   
   137  135  136 1   
   138  135  138 1   
   139  135  141 1   
   140  136  137 2   
   141  136  148 1   
   142  138  139 1   
   143  138  142 1   
   144  138  143 1   
   145  139  140 1   
   146  139  144 1   
   147  139  145 1   
   148  140  146 1   
   149  140  147 1   
   150  148  149 1   
   151  148  157 1   
   152  149  150 1   
   153  149  152 1   
   154  149  158 1   
   155  150  151 2   
   156  150  163 1   
   157  152  153 1   
   158  152  159 1   
   159  152  160 1   
   160  153  154 1   
   161  153  161 1   
   162  153  162 1   
   163  154  155 1   
   164  154  156 1   
   165  163  164 1   
   166  163  168 1   
   167  164  165 1   
   168  164  166 1   
   169  164  167 1   
   170  170  171 1   
   171  170  172 1   
   172  173  174 1   
   173  173  175 1   
@<TRIPOS>SUBSTRUCTURE
     1 MOL         1 TEMP              0 ****  ****    0 ROOT
