@<TRIPOS>MOLECULE
MOL
  175   173     1     0     0
SMALL
resp


@<TRIPOS>ATOM
      1 C1          0.1860    4.5280    5.2510 c3        1 MOL     -0.465609
      2 C2         -0.2880    4.4320    3.7790 c         1 MOL      0.674179
      3 O1          0.5290    4.3900    2.8340 o         1 MOL     -0.541002
      4 H1          0.7820    5.4300    5.3820 hc        1 MOL      0.117767
      5 H2         -0.6810    4.5670    5.9100 hc        1 MOL      0.117767
      6 H3          0.7910    3.6550    5.4970 hc        1 MOL      0.117767
      7 N1         -1.6330    4.2940    3.5940 n         1 MOL     -0.619776
      8 C3         -2.1340    3.7080    2.3550 c3        1 MOL      0.073897
      9 C4         -2.1860    4.9180    1.3490 c         1 MOL      0.660119
     10 O2         -2.4310    6.0530    1.7670 o         1 MOL     -0.567936
     11 C5         -3.5010    3.1440    2.7530 c3        1 MOL     -0.371567
     12 C6         -4.2120    2.3250    1.6550 c         1 MOL      0.848760
     13 O3         -5.4080    2.0120    1.8680 o         1 MOL     -0.711672
     14 O4         -3.6160    1.9950    0.6130 o         1 MOL     -0.711672
     15 H4         -2.2600    4.5700    4.3360 hn        1 MOL      0.343452
     16 H5         -1.4750    2.9000    2.0540 h1        1 MOL      0.161202
     17 H6         -4.1430    3.9770    3.0540 hc        1 MOL      0.084428
     18 H7         -3.4100    2.4710    3.6080 hc        1 MOL      0.084428
     19 N2         -2.0180    4.5890    0.0400 n         1 MOL     -0.633475
     20 C7         -2.1010    5.4420   -1.1280 c3        1 MOL      0.447012
     21 C8         -3.1220    4.9480   -2.1840 c         1 MOL      0.394834
     22 O5         -3.3580    5.6360   -3.1850 o         1 MOL     -0.561104
     23 C9         -0.7260    5.7880   -1.7770 c3        1 MOL     -0.367281
     24 H8         -1.5820    3.6950   -0.1430 hn        1 MOL      0.326823
     25 H9         -2.4440    6.4110   -0.7910 h1        1 MOL     -0.023484
     26 H10        -0.8910    6.4140   -2.6480 hc        1 MOL      0.088191
     27 H11        -0.1670    6.3700   -1.0550 hc        1 MOL      0.088191
     28 H12        -0.2400    4.8860   -2.1470 hc        1 MOL      0.088191
     29 N3         -3.8090    3.8180   -1.9250 n         1 MOL     -0.328278
     30 C10        -4.7030    3.2280   -2.8930 c3        1 MOL      0.145933
     31 C11        -6.0900    2.5570   -2.4130 c         1 MOL      0.288732
     32 O6         -7.1080    2.7070   -3.1180 o         1 MOL     -0.538334
     33 C12        -3.9690    2.2160   -3.8770 c3        1 MOL     -0.076106
     34 C13        -3.1760    1.1350   -3.1480 c         1 MOL      0.687053
     35 O7         -3.5900    0.6780   -2.0710 o         1 MOL     -0.697122
     36 O8         -2.1450    0.7340   -3.7040 o         1 MOL     -0.697122
     37 H13        -3.7490    3.3880   -1.0120 hn        1 MOL      0.152455
     38 H14        -5.1010    3.9890   -3.5700 h1        1 MOL      0.042400
     39 H15        -3.3550    2.7990   -4.5500 hc        1 MOL      0.013637
     40 H16        -4.6960    1.7390   -4.5480 hc        1 MOL      0.013637
     41 N4         -6.0960    2.0530   -1.1960 n         1 MOL     -0.048993
     42 C14        -7.2630    1.3450   -0.6630 c3        1 MOL     -0.410254
     43 C15        -7.2650   -0.1510   -0.8950 c         1 MOL      0.594474
     44 O9         -8.3060   -0.7720   -0.5750 o         1 MOL     -0.620701
     45 H17        -5.2770    2.1250   -0.6190 hn        1 MOL      0.153157
     46 H18        -8.1430    1.7380   -1.1680 h1        1 MOL      0.170002
     47 H19        -7.2610    1.5720    0.3970 h1        1 MOL      0.170002
     48 N5         -6.2310   -0.7570   -1.4920 n         1 MOL     -0.311042
     49 C16        -6.1970   -2.1440   -2.0940 c3        1 MOL     -0.016274
     50 C17        -6.2000   -3.3170   -1.0840 c         1 MOL      0.454827
     51 O10        -6.3120   -4.4740   -1.5000 o         1 MOL     -0.549694
     52 C18        -5.0420   -2.2560   -3.1240 c3        1 MOL     -0.157202
     53 C19        -3.6800   -2.3680   -2.3590 c         1 MOL      0.588873
     54 N6         -2.6430   -2.7600   -3.1220 n         1 MOL     -0.599703
     55 O11        -3.5920   -2.2170   -1.1480 o         1 MOL     -0.623782
     56 H20        -5.4880   -0.0980   -1.7090 hn        1 MOL      0.271450
     57 H21        -7.1390   -2.3270   -2.6250 h1        1 MOL      0.088201
     58 H22        -5.0310   -1.4200   -3.8310 hc        1 MOL      0.055744
     59 H23        -5.0980   -3.1990   -3.6550 hc        1 MOL      0.055744
     60 H24        -2.6990   -2.8960   -4.1200 hn        1 MOL      0.324760
     61 H25        -1.7440   -2.9420   -2.6980 hn        1 MOL      0.324760
     62 N7         -6.1740   -2.9360    0.1630 n         1 MOL     -0.174393
     63 C20        -6.2600   -3.8180    1.3820 c3        1 MOL     -0.329411
     64 C21        -4.9420   -4.3250    1.9340 c         1 MOL      0.528422
     65 O12        -4.8740   -4.9320    2.9800 o         1 MOL     -0.599527
     66 H26        -6.2070   -1.9450    0.3160 hn        1 MOL      0.228799
     67 H27        -6.9370   -4.6650    1.3430 h1        1 MOL      0.143713
     68 H28        -6.6240   -3.1760    2.1790 h1        1 MOL      0.143713
     69 N8         -3.8630   -4.1240    1.2150 n         1 MOL     -0.205619
     70 C22        -2.5040   -4.5760    1.4910 c3        1 MOL     -0.128338
     71 C23        -1.6080   -3.3070    1.6500 c         1 MOL      0.594407
     72 O13        -1.8730   -2.1850    1.1700 o         1 MOL     -0.606758
     73 C24        -2.0090   -5.3640    0.2570 c3        1 MOL      0.539186
     74 C25        -2.7940   -6.6410   -0.0490 c3        1 MOL     -0.294484
     75 O14        -1.9620   -4.6590   -1.0130 oh        1 MOL     -0.645208
     76 H29        -4.0550   -3.6080    0.3670 hn        1 MOL      0.251779
     77 H30        -2.5210   -5.2260    2.3570 h1        1 MOL      0.084844
     78 H31        -1.0140   -5.6790    0.5490 h1        1 MOL     -0.070398
     79 H32        -1.7860   -3.7250   -0.8670 ho        1 MOL      0.371175
     80 H33        -3.8080   -6.4480   -0.3940 hc        1 MOL      0.064145
     81 H34        -2.2510   -7.1920   -0.8180 hc        1 MOL      0.064145
     82 H35        -2.7490   -7.3120    0.8140 hc        1 MOL      0.064145
     83 N9         -0.5470   -3.4730    2.4280 n         1 MOL     -0.606915
     84 C26         0.6260   -2.5380    2.3480 c3        1 MOL      0.143453
     85 C27         1.4790   -3.0460    1.1560 c         1 MOL      0.493664
     86 O15         1.6500   -4.2490    0.9080 o         1 MOL     -0.575820
     87 C28         1.4240   -2.5240    3.6540 c3        1 MOL     -0.030462
     88 C29         0.7860   -1.5420    4.6830 c3        1 MOL      0.050711
     89 C30         2.9400   -2.1300    3.5640 c3        1 MOL     -0.094351
     90 C31         1.1730   -1.8510    6.1470 c3        1 MOL     -0.241126
     91 H36        -0.3570   -4.4100    2.7380 hn        1 MOL      0.309206
     92 H37         0.3100   -1.5270    2.1360 h1        1 MOL      0.099587
     93 H38         1.3630   -3.5640    3.9890 hc        1 MOL      0.039801
     94 H39        -0.3040   -1.5840    4.6310 hc        1 MOL      0.015979
     95 H40         0.9480   -0.4930    4.4540 hc        1 MOL      0.015979
     96 H41         3.0010   -1.1490    3.1020 hc        1 MOL      0.015356
     97 H42         3.4600   -2.1800    4.5220 hc        1 MOL      0.015356
     98 H43         3.4890   -2.8530    2.9450 hc        1 MOL      0.015356
     99 H44         0.6850   -1.1560    6.8370 hc        1 MOL      0.055223
    100 H45         0.9830   -2.8860    6.4420 hc        1 MOL      0.055223
    101 H46         2.2520   -1.8260    6.2740 hc        1 MOL      0.055223
    102 N10         1.9740   -2.0160    0.5040 n         1 MOL     -0.259604
    103 C32         2.6750   -2.1420   -0.8030 c3        1 MOL      0.175214
    104 C33         4.1100   -1.7170   -0.5530 c         1 MOL      0.466841
    105 O16         4.2890   -0.9680    0.4050 o         1 MOL     -0.382903
    106 C34         1.9720   -1.3790   -1.8950 c3        1 MOL     -0.188830
    107 C35         0.5190   -1.7730   -2.1550 c         1 MOL      0.676080
    108 O17        -0.4030   -1.3530   -1.3870 o         1 MOL     -0.657577
    109 O18         0.3040   -2.6020   -3.0580 o         1 MOL     -0.657577
    110 H47         1.8230   -1.0800    0.8440 hn        1 MOL      0.076373
    111 H48         2.6570   -3.2100   -1.0400 h1        1 MOL      0.044798
    112 H49         2.5900   -1.6650   -2.7440 hc        1 MOL      0.043509
    113 H50         2.0850   -0.2960   -1.7950 hc        1 MOL      0.043509
    114 N11         4.9900   -1.9740   -1.5060 n         1 MOL     -0.792691
    115 C36         6.4340   -1.5700   -1.3100 c3        1 MOL      0.562518
    116 C37         6.7040   -0.0130   -1.1550 c         1 MOL      0.245367
    117 O19         7.4430    0.2560   -0.2520 o         1 MOL     -0.443042
    118 C38         7.2930   -2.1940   -2.4160 c3        1 MOL     -0.316196
    119 C39         8.8060   -1.9270   -2.2440 ca        1 MOL      0.134853
    120 C40         9.4480   -1.9900   -0.9870 ca        1 MOL     -0.196396
    121 C41         9.5570   -1.5220   -3.3620 ca        1 MOL     -0.196396
    122 C42        10.8110   -1.6690   -0.8500 ca        1 MOL     -0.066773
    123 C43        10.9470   -1.2820   -3.2380 ca        1 MOL     -0.066773
    124 C44        11.6050   -1.3630   -1.9750 ca        1 MOL     -0.171819
    125 H51         4.7280   -2.5420   -2.3030 hn        1 MOL      0.376321
    126 H52         6.7530   -2.0620   -0.4000 h1        1 MOL      0.039117
    127 H53         7.0400   -1.7010   -3.3640 hc        1 MOL      0.081097
    128 H54         7.2140   -3.2680   -2.4810 hc        1 MOL      0.081097
    129 H55         8.8650   -2.2920   -0.1310 ha        1 MOL      0.118947
    130 H56         9.1030   -1.4190   -4.3310 ha        1 MOL      0.118947
    131 H57        11.3260   -1.9020    0.0670 ha        1 MOL      0.097483
    132 H58        11.4820   -1.0080   -4.1370 ha        1 MOL      0.097483
    133 H59        12.6660   -1.1550   -1.8990 ha        1 MOL      0.120553
    134 N12         6.0270    0.9690   -1.8320 n         1 MOL     -0.061748
    135 C45         6.2470    2.3710   -1.4580 c3        1 MOL      0.065833
    136 C46         5.7920    2.6420   -0.0490 c         1 MOL      0.184332
    137 O20         6.3070    3.6120    0.5150 o         1 MOL     -0.484094
    138 C47         5.4210    3.0890   -2.4500 c3        1 MOL     -0.068810
    139 C48         5.4460    2.2210   -3.7100 c3        1 MOL     -0.048797
    140 C49         5.4240    0.8360   -3.0930 c3        1 MOL      0.044229
    141 H60         7.2910    2.6700   -1.6000 h1        1 MOL      0.070649
    142 H61         4.3510    3.1990   -2.2900 hc        1 MOL      0.061371
    143 H62         5.7970    4.0940   -2.6470 hc        1 MOL      0.061371
    144 H63         4.6270    2.3490   -4.4260 hc        1 MOL      0.016742
    145 H64         6.4260    2.1830   -4.1900 hc        1 MOL      0.016742
    146 H65         4.3680    0.6040   -2.9700 h1        1 MOL      0.024647
    147 H66         5.8220    0.1040   -3.7850 h1        1 MOL      0.024647
    148 N13         4.8280    1.8940    0.4600 n         1 MOL     -0.024494
    149 C50         4.2420    2.1210    1.7880 c3        1 MOL     -0.071226
    150 C51         5.0260    1.3890    2.9130 c         1 MOL      0.401113
    151 O21         5.2200    1.8920    3.9930 o         1 MOL     -0.573560
    152 C52         2.7260    1.6150    1.7230 c3        1 MOL     -0.000500
    153 C53         1.8630    2.2950    0.6430 c3        1 MOL     -0.127300
    154 C54         0.5300    1.5560    0.5390 c         1 MOL      0.743325
    155 O22         0.2350    0.5630    1.2540 o         1 MOL     -0.757862
    156 O23        -0.3880    1.9520   -0.2510 o         1 MOL     -0.757862
    157 H67         4.4630    1.1090   -0.0680 hn        1 MOL      0.106383
    158 H68         4.3250    3.1700    2.0520 h1        1 MOL      0.102459
    159 H69         2.2700    1.6720    2.7160 hc        1 MOL      0.063444
    160 H70         2.9430    0.5860    1.4300 hc        1 MOL      0.063444
    161 H71         2.3290    2.2760   -0.3300 hc        1 MOL      0.043763
    162 H72         1.5750    3.2750    1.0400 hc        1 MOL      0.043763
    163 N14         5.6960    0.3260    2.5510 n         1 MOL      0.079179
    164 C55         6.7150   -0.2940    3.3540 c3        1 MOL     -0.201895
    165 H73         6.9440    0.3450    4.2070 h1        1 MOL      0.070895
    166 H74         6.3590   -1.2600    3.7100 h1        1 MOL      0.070895
    167 H75         7.6160   -0.4350    2.7550 h1        1 MOL      0.070895
    168 H76         5.4600   -0.0670    1.6480 hn        1 MOL     -0.005618
    169 Ca1        -2.2000   -0.0830   -0.0670 Ca        1 MOL      1.674363
    170 O24        -1.9510    0.3480    2.5600 oh        1 MOL     -0.741497
    171 H77        -1.9990    0.2970    3.5120 ho        1 MOL      0.359825
    172 H78        -1.0210    0.4040    2.3630 ho        1 MOL      0.359825
    173 O25        -4.6090   -0.6430    1.1760 oh        1 MOL     -0.741497
    174 H79        -4.8250    0.2800    1.3290 ho        1 MOL      0.359825
    175 H80        -4.5160   -1.0190    2.0520 ho        1 MOL      0.359825
@<TRIPOS>BOND
     1    1    2 1   
     2    1    4 1   
     3    1    5 1   
     4    1    6 1   
     5    2    3 2   
     6    2    7 1   
     7    7    8 1   
     8    7   15 1   
     9    8    9 1   
    10    8   11 1   
    11    8   16 1   
    12    9   10 2   
    13    9   19 1   
    14   11   12 1   
    15   11   17 1   
    16   11   18 1   
    17   12   13 1   
    18   12   14 1   
    19   19   20 1   
    20   19   24 1   
    21   20   21 1   
    22   20   23 1   
    23   20   25 1   
    24   21   22 2   
    25   21   29 1   
    26   23   26 1   
    27   23   27 1   
    28   23   28 1   
    29   29   30 1   
    30   29   37 1   
    31   30   31 1   
    32   30   33 1   
    33   30   38 1   
    34   31   32 2   
    35   31   41 1   
    36   33   34 1   
    37   33   39 1   
    38   33   40 1   
    39   34   35 1   
    40   34   36 1   
    41   41   42 1   
    42   41   45 1   
    43   42   43 1   
    44   42   46 1   
    45   42   47 1   
    46   43   44 2   
    47   43   48 1   
    48   48   49 1   
    49   48   56 1   
    50   49   50 1   
    51   49   52 1   
    52   49   57 1   
    53   50   51 2   
    54   50   62 1   
    55   52   53 1   
    56   52   58 1   
    57   52   59 1   
    58   53   54 1   
    59   53   55 2   
    60   54   60 1   
    61   54   61 1   
    62   62   63 1   
    63   62   66 1   
    64   63   64 1   
    65   63   67 1   
    66   63   68 1   
    67   64   65 2   
    68   64   69 1   
    69   69   70 1   
    70   69   76 1   
    71   70   71 1   
    72   70   73 1   
    73   70   77 1   
    74   71   72 2   
    75   71   83 1   
    76   73   74 1   
    77   73   75 1   
    78   73   78 1   
    79   74   80 1   
    80   74   81 1   
    81   74   82 1   
    82   75   79 1   
    83   83   84 1   
    84   83   91 1   
    85   84   85 1   
    86   84   87 1   
    87   84   92 1   
    88   85   86 2   
    89   85  102 1   
    90   87   88 1   
    91   87   89 1   
    92   87   93 1   
    93   88   90 1   
    94   88   94 1   
    95   88   95 1   
    96   89   96 1   
    97   89   97 1   
    98   89   98 1   
    99   90   99 1   
   100   90  100 1   
   101   90  101 1   
   102  102  103 1   
   103  102  110 1   
   104  103  104 1   
   105  103  106 1   
   106  103  111 1   
   107  104  105 2   
   108  104  114 1   
   109  106  107 1   
   110  106  112 1   
   111  106  113 1   
   112  107  108 1   
   113  107  109 1   
   114  114  115 1   
   115  114  125 1   
   116  115  116 1   
   117  115  118 1   
   118  115  126 1   
   119  116  117 2   
   120  116  134 1   
   121  118  119 1   
   122  118  127 1   
   123  118  128 1   
   124  119  120 ar  
   125  119  121 ar  
   126  120  122 ar  
   127  120  129 1   
   128  121  123 ar  
   129  121  130 1   
   130  122  124 ar  
   131  122  131 1   
   132  123  124 ar  
   133  123  132 1   
   134  124  133 1   
   135  134  135 1   
   136  134  140 1   
   137  135  136 1   
   138  135  138 1   
   139  135  141 1   
   140  136  137 2   
   141  136  148 1   
   142  138  139 1   
   143  138  142 1   
   144  138  143 1   
   145  139  140 1   
   146  139  144 1   
   147  139  145 1   
   148  140  146 1   
   149  140  147 1   
   150  148  149 1   
   151  148  157 1   
   152  149  150 1   
   153  149  152 1   
   154  149  158 1   
   155  150  151 2   
   156  150  163 1   
   157  152  153 1   
   158  152  159 1   
   159  152  160 1   
   160  153  154 1   
   161  153  161 1   
   162  153  162 1   
   163  154  155 1   
   164  154  156 1   
   165  163  164 1   
   166  163  168 1   
   167  164  165 1   
   168  164  166 1   
   169  164  167 1   
   170  170  171 1   
   171  170  172 1   
   172  173  174 1   
   173  173  175 1   
@<TRIPOS>SUBSTRUCTURE
     1 MOL         1 TEMP              0 ****  ****    0 ROOT
