@<TRIPOS>MOLECULE
MOL
  186   183     1     0     0
SMALL
resp


@<TRIPOS>ATOM
      1 C1          0.5070   -2.0510    6.3770 c3        1 MOL     -0.285293
      2 C2          0.7980   -1.9840    4.8450 c         1 MOL      0.781388
      3 O1         -0.0610   -2.1750    3.9370 o         1 MOL     -0.648525
      4 H1          0.3860   -1.0410    6.7670 hc        1 MOL      0.067601
      5 H2         -0.4060   -2.6190    6.5490 hc        1 MOL      0.067601
      6 H3          1.3390   -2.5380    6.8840 hc        1 MOL      0.067601
      7 N1          2.0550   -1.6380    4.5000 n         1 MOL     -0.738818
      8 C3          2.5430   -1.5890    3.1370 c3        1 MOL      0.473601
      9 C4          2.8720   -3.0260    2.7200 c         1 MOL      0.528397
     10 O2          3.5180   -3.7310    3.4910 o         1 MOL     -0.623868
     11 C5          3.7280   -0.5860    3.1930 c3        1 MOL     -0.327255
     12 C6          4.5580   -0.4490    1.8840 c         1 MOL      0.815601
     13 O3          5.7610   -0.1260    1.8870 o         1 MOL     -0.681495
     14 O4          3.9050   -0.7180    0.8490 o         1 MOL     -0.681495
     15 H4          2.6010   -1.2170    5.2290 hn        1 MOL      0.327747
     16 H5          1.7420   -1.1680    2.5250 h1        1 MOL     -0.048678
     17 H6          4.4120   -0.9330    3.9630 hc        1 MOL      0.041984
     18 H7          3.3720    0.4280    3.3970 hc        1 MOL      0.041984
     19 N2          2.4400   -3.4150    1.5790 n         1 MOL     -0.253953
     20 C7          2.4490   -4.8230    1.0260 c3        1 MOL      0.162101
     21 C8          3.5870   -4.9110    0.0070 c         1 MOL      0.379973
     22 O5          4.2540   -5.9090    0.0840 o         1 MOL     -0.554678
     23 C9          1.1100   -5.2870    0.4180 c3        1 MOL      0.076240
     24 C10        -0.0370   -5.2390    1.4570 c3        1 MOL      0.107290
     25 C11         1.1850   -6.6820   -0.2220 c3        1 MOL     -0.333736
     26 C12         0.0980   -6.3560    2.5210 c3        1 MOL     -0.316387
     27 H8          1.9470   -2.7040    1.0550 hn        1 MOL      0.084982
     28 H9          2.7380   -5.5020    1.8210 h1        1 MOL      0.040434
     29 H10         0.8780   -4.5940   -0.3860 hc        1 MOL      0.007732
     30 H11        -1.0360   -5.3880    1.0360 hc        1 MOL      0.017252
     31 H12         0.0440   -4.2430    1.8870 hc        1 MOL      0.017252
     32 H13         1.7360   -7.4750    0.2840 hc        1 MOL      0.084518
     33 H14         0.1570   -7.0260   -0.3330 hc        1 MOL      0.084518
     34 H15         1.4740   -6.5410   -1.2650 hc        1 MOL      0.084518
     35 H16        -0.1280   -7.2820    1.9960 hc        1 MOL      0.066603
     36 H17         1.0290   -6.3910    3.0820 hc        1 MOL      0.066603
     37 H18        -0.6600   -6.0480    3.2480 hc        1 MOL      0.066603
     38 N3          3.7620   -3.9890   -0.9720 n         1 MOL     -0.249591
     39 C13         4.7770   -4.1090   -2.0270 c3        1 MOL     -0.030865
     40 C14         6.1300   -3.5680   -1.6020 c         1 MOL      0.389239
     41 O6          7.1790   -3.7960   -2.2810 o         1 MOL     -0.545206
     42 C15         4.2690   -3.6370   -3.3920 c3        1 MOL     -0.083869
     43 C16         3.5290   -2.2900   -3.5390 c         1 MOL      0.686083
     44 O7          2.8000   -2.1040   -4.5630 o         1 MOL     -0.684924
     45 O8          3.5020   -1.5230   -2.5560 o         1 MOL     -0.684924
     46 H19         3.2100   -3.1390   -1.0040 hn        1 MOL      0.188171
     47 H20         4.9270   -5.1720   -2.2200 h1        1 MOL      0.099098
     48 H21         3.6910   -4.4640   -3.8180 hc        1 MOL      0.022710
     49 H22         5.1100   -3.7380   -4.0800 hc        1 MOL      0.022710
     50 N4          6.1330   -2.8760   -0.4830 n         1 MOL     -0.002040
     51 C17         7.2970   -2.2400    0.0700 c3        1 MOL     -0.260207
     52 C18         7.7170   -1.0440   -0.7880 c         1 MOL      0.677052
     53 O9          8.7540   -1.0900   -1.4660 o         1 MOL     -0.590466
     54 H23         5.2250   -2.6570   -0.1070 hn        1 MOL      0.107890
     55 H24         8.1120   -2.9580    0.0580 h1        1 MOL      0.088402
     56 H25         7.1210   -1.9450    1.1040 h1        1 MOL      0.088402
     57 N5          6.9240    0.0570   -0.7880 n         1 MOL     -0.355942
     58 C19         7.3320    1.2980   -1.5220 c3        1 MOL     -0.032421
     59 C20         7.1980    2.5640   -0.7260 c         1 MOL      0.470430
     60 O10         7.5770    3.6320   -1.2500 o         1 MOL     -0.570191
     61 C21         6.4110    1.3210   -2.7580 c3        1 MOL     -0.245307
     62 C22         4.9270    1.4330   -2.4400 c         1 MOL      0.824103
     63 O11         4.2040    1.3820   -3.4580 o         1 MOL     -0.754063
     64 O12         4.4940    1.6460   -1.3110 o         1 MOL     -0.754063
     65 H26         6.1360    0.0340   -0.1520 hn        1 MOL      0.010592
     66 H27         8.3390    1.2180   -1.9150 h1        1 MOL      0.100112
     67 H28         6.5150    0.3470   -3.2390 hc        1 MOL      0.088363
     68 H29         6.6490    2.1560   -3.4070 hc        1 MOL      0.088363
     69 N6          6.7810    2.4520    0.5310 n         1 MOL     -0.269837
     70 C23         6.7600    3.5510    1.5270 c3        1 MOL     -0.258722
     71 C24         5.4480    4.2970    1.6580 c         1 MOL      0.557829
     72 O13         5.3710    5.2990    2.3470 o         1 MOL     -0.581611
     73 H30         6.5380    1.5060    0.7870 hn        1 MOL      0.291428
     74 H31         7.5970    4.2310    1.3340 h1        1 MOL      0.131969
     75 H32         6.9590    3.0400    2.4660 h1        1 MOL      0.131969
     76 N7          4.3700    3.8680    0.9760 n         1 MOL     -0.354021
     77 C25         3.0660    4.4540    0.9840 c3        1 MOL      0.011285
     78 C26         2.0290    3.3550    0.9920 c         1 MOL      0.662771
     79 O14         2.2510    2.2050    0.5930 o         1 MOL     -0.731138
     80 C27         2.9510    5.3260   -0.1930 c3        1 MOL      0.101490
     81 C28         3.8580    6.5110   -0.1040 c3        1 MOL     -0.373657
     82 C29         3.6450    7.5000   -1.1900 c         1 MOL      0.730936
     83 N8          4.0230    7.2850   -2.4060 n         1 MOL     -0.806625
     84 O15         3.2800    8.6610   -0.8910 o         1 MOL     -0.621264
     85 H33         4.5000    3.1310    0.2980 hn        1 MOL      0.325090
     86 H34         3.1070    5.0880    1.8630 h1        1 MOL      0.056989
     87 H35         1.9290    5.6840   -0.3850 hc        1 MOL     -0.007941
     88 H36         3.2280    4.7800   -1.0950 hc        1 MOL     -0.007941
     89 H37         4.8420    6.1050   -0.3440 hc        1 MOL      0.125323
     90 H38         3.8890    6.9560    0.8920 hc        1 MOL      0.125323
     91 H39         4.4810    6.4060   -2.6130 hn        1 MOL      0.366857
     92 H40         3.8430    7.9200   -3.1720 hn        1 MOL      0.366857
     93 N9          0.7920    3.6830    1.4270 n         1 MOL     -0.484037
     94 C30        -0.3500    2.7420    1.6610 c3        1 MOL      0.344709
     95 C31        -1.5470    3.1730    0.8040 c         1 MOL      0.286719
     96 O16        -1.8690    4.3740    0.8460 o         1 MOL     -0.584391
     97 C32        -0.6790    2.7210    3.2160 c3        1 MOL      0.043572
     98 C33        -2.0110    2.0540    3.5910 c3        1 MOL     -0.154996
     99 C34         0.5500    2.0390    3.9630 c3        1 MOL     -0.154996
    100 H41         0.7040    4.6280    1.7660 hn        1 MOL      0.235435
    101 H42        -0.0040    1.7620    1.3190 h1        1 MOL      0.141423
    102 H43        -0.7310    3.7720    3.4890 hc        1 MOL      0.007054
    103 H44        -2.8150    2.7750    3.4110 hc        1 MOL      0.027986
    104 H45        -2.2170    1.1520    3.0310 hc        1 MOL      0.027986
    105 H46        -2.0800    2.0280    4.6800 hc        1 MOL      0.027986
    106 H47         0.6450    0.9940    3.6520 hc        1 MOL      0.027986
    107 H48         1.4280    2.5450    3.5750 hc        1 MOL      0.027986
    108 H49         0.5560    2.1270    5.0480 hc        1 MOL      0.027986
    109 N10        -2.1970    2.3440   -0.0090 n         1 MOL      0.058799
    110 C35        -3.2740    2.6160   -0.9380 c3        1 MOL      0.226235
    111 C36        -4.6040    2.1220   -0.3030 c         1 MOL      0.409775
    112 O17        -4.5560    1.3950    0.6700 o         1 MOL     -0.391392
    113 C37        -2.8240    2.1980   -2.3350 c3        1 MOL     -0.479305
    114 C38        -3.2580    0.7780   -2.7410 c         1 MOL      0.609124
    115 N11        -2.4690   -0.2030   -2.3970 n         1 MOL     -0.537280
    116 O18        -4.3530    0.4960   -3.1820 o         1 MOL     -0.573221
    117 H50        -1.9070    1.3750    0.0920 hn        1 MOL     -0.187213
    118 H51        -3.3810    3.6930   -0.9100 h1        1 MOL      0.030714
    119 H52        -1.7330    2.1680   -2.3210 hc        1 MOL      0.147727
    120 H53        -3.1420    2.9730   -3.0320 hc        1 MOL      0.147727
    121 H54        -1.6150   -0.0020   -1.8950 hn        1 MOL      0.311506
    122 H55        -2.5930   -1.0650   -2.9030 hn        1 MOL      0.311506
    123 N12        -5.7100    2.4440   -0.9430 n         1 MOL     -0.668207
    124 C39        -6.9850    1.9140   -0.5380 c3        1 MOL      0.465024
    125 C40        -6.9930    0.3830   -0.4030 c         1 MOL      0.506117
    126 O19        -7.6110   -0.1130    0.5280 o         1 MOL     -0.537190
    127 C41        -8.1380    2.4120   -1.4760 c3        1 MOL     -0.258584
    128 C42        -9.5420    2.1850   -1.0270 ca        1 MOL      0.148422
    129 C43       -10.0110    2.6260    0.2150 ca        1 MOL     -0.201193
    130 C44       -10.4040    1.6640   -1.9950 ca        1 MOL     -0.201193
    131 C45       -11.3000    2.3740    0.5600 ca        1 MOL     -0.230897
    132 C46       -11.7330    1.3740   -1.6290 ca        1 MOL     -0.230897
    133 C47       -12.1450    1.6990   -0.3320 ca        1 MOL      0.301228
    134 O20       -13.4280    1.5180    0.1570 oh        1 MOL     -0.486462
    135 H56        -5.6350    3.1020   -1.7090 hn        1 MOL      0.334861
    136 H57        -7.2550    2.2330    0.4650 h1        1 MOL     -0.009823
    137 H58        -7.9960    2.0170   -2.4810 hc        1 MOL      0.061666
    138 H59        -8.0500    3.4970   -1.5830 hc        1 MOL      0.061666
    139 H60        -9.3170    3.1540    0.8520 ha        1 MOL      0.146131
    140 H61       -10.0200    1.3330   -2.9530 ha        1 MOL      0.146131
    141 H62       -11.6920    2.7960    1.4730 ha        1 MOL      0.139478
    142 H63       -12.5190    0.8880   -2.1930 ha        1 MOL      0.139478
    143 H64       -13.9600    1.0470   -0.4930 ho        1 MOL      0.340431
    144 N13        -6.3810   -0.4200   -1.2920 n         1 MOL     -0.525742
    145 C48        -6.3110   -1.8650   -1.1240 c3        1 MOL      0.066601
    146 C49        -5.5480   -2.3300    0.1600 c         1 MOL      0.203856
    147 O21        -5.8320   -3.3990    0.6910 o         1 MOL     -0.481468
    148 C50        -5.6810   -2.4680   -2.4480 c3        1 MOL      0.029544
    149 C51        -5.1690   -3.9560   -2.4450 c3        1 MOL     -0.366669
    150 C52        -4.5730   -4.2590   -3.7940 c         1 MOL      0.794020
    151 O22        -3.3530   -4.1230   -4.0230 o         1 MOL     -0.757237
    152 O23        -5.2970   -4.6850   -4.7260 o         1 MOL     -0.757237
    153 H65        -5.9040    0.0290   -2.0600 hn        1 MOL      0.292656
    154 H66        -7.2310   -2.4590   -1.0600 h1        1 MOL      0.084576
    155 H67        -4.7590   -1.9120   -2.6170 hc        1 MOL      0.032806
    156 H68        -6.2680   -2.2150   -3.3320 hc        1 MOL      0.032806
    157 H69        -6.0230   -4.6220   -2.4030 hc        1 MOL      0.067411
    158 H70        -4.4240   -4.0680   -1.6600 hc        1 MOL      0.067411
    159 N14        -4.5380   -1.5740    0.5140 n         1 MOL      0.094387
    160 C53        -3.7000   -1.7730    1.7510 c3        1 MOL     -0.120782
    161 C54        -4.4620   -1.3200    3.0660 c         1 MOL      0.421941
    162 O24        -4.3560   -2.0280    4.0390 o         1 MOL     -0.545531
    163 C55        -2.3310   -1.1080    1.6110 c3        1 MOL      0.212404
    164 C56        -1.4490   -1.8220    0.6560 c3        1 MOL      0.145229
    165 C57        -0.2100   -1.0730    0.1540 c         1 MOL      0.647179
    166 O25         0.9220   -1.5600    0.1270 o         1 MOL     -0.706882
    167 O26        -0.2820    0.0660   -0.2860 o         1 MOL     -0.706882
    168 H71        -4.1560   -0.9290   -0.1690 hn        1 MOL      0.072670
    169 H72        -3.5950   -2.8580    1.8280 h1        1 MOL      0.089037
    170 H73        -1.8310   -1.0670    2.5870 hc        1 MOL     -0.022393
    171 H74        -2.4780   -0.0850    1.2430 hc        1 MOL     -0.022393
    172 H75        -2.0360   -2.1540   -0.1950 hc        1 MOL     -0.057898
    173 H76        -1.1520   -2.7790    1.0860 hc        1 MOL     -0.057898
    174 N15        -5.2920   -0.2840    2.9320 n         1 MOL     -0.040690
    175 C58        -6.1810    0.2490    3.8990 c3        1 MOL     -0.298021
    176 H77        -5.6600    0.9980    4.4970 h1        1 MOL      0.094401
    177 H78        -7.0300    0.7120    3.3960 h1        1 MOL      0.094401
    178 H79        -6.5350   -0.5510    4.5480 h1        1 MOL      0.094401
    179 H80        -5.1740    0.2710    2.0920 hn        1 MOL      0.117076
    180 Ca1         2.3190    0.2420   -1.0720 Ca        1 MOL      1.801288
    181 O27         2.0080    2.7690   -2.2360 oh        1 MOL     -0.912549
    182 H81         2.8180    2.4590   -2.6410 ho        1 MOL      0.422620
    183 H82         1.6970    3.4690   -2.8060 ho        1 MOL      0.422620
    184 O28         0.7010   -0.7020   -3.0390 oh        1 MOL     -0.912549
    185 H83        -0.0220   -1.3370   -2.9730 ho        1 MOL      0.422620
    186 H84         1.1460   -0.9300   -3.8490 ho        1 MOL      0.422620
@<TRIPOS>BOND
     1    1    2 1   
     2    1    4 1   
     3    1    5 1   
     4    1    6 1   
     5    2    3 2   
     6    2    7 1   
     7    7    8 1   
     8    7   15 1   
     9    8    9 1   
    10    8   11 1   
    11    8   16 1   
    12    9   10 2   
    13    9   19 1   
    14   11   12 1   
    15   11   17 1   
    16   11   18 1   
    17   12   13 1   
    18   12   14 1   
    19   19   20 1   
    20   19   27 1   
    21   20   21 1   
    22   20   23 1   
    23   20   28 1   
    24   21   22 2   
    25   21   38 1   
    26   23   24 1   
    27   23   25 1   
    28   23   29 1   
    29   24   26 1   
    30   24   30 1   
    31   24   31 1   
    32   25   32 1   
    33   25   33 1   
    34   25   34 1   
    35   26   35 1   
    36   26   36 1   
    37   26   37 1   
    38   38   39 1   
    39   38   46 1   
    40   39   40 1   
    41   39   42 1   
    42   39   47 1   
    43   40   41 2   
    44   40   50 1   
    45   42   43 1   
    46   42   48 1   
    47   42   49 1   
    48   43   44 1   
    49   43   45 1   
    50   50   51 1   
    51   50   54 1   
    52   51   52 1   
    53   51   55 1   
    54   51   56 1   
    55   52   53 2   
    56   52   57 1   
    57   57   58 1   
    58   57   65 1   
    59   58   59 1   
    60   58   61 1   
    61   58   66 1   
    62   59   60 2   
    63   59   69 1   
    64   61   62 1   
    65   61   67 1   
    66   61   68 1   
    67   62   63 1   
    68   62   64 1   
    69   69   70 1   
    70   69   73 1   
    71   70   71 1   
    72   70   74 1   
    73   70   75 1   
    74   71   72 2   
    75   71   76 1   
    76   76   77 1   
    77   76   85 1   
    78   77   78 1   
    79   77   80 1   
    80   77   86 1   
    81   78   79 2   
    82   78   93 1   
    83   80   81 1   
    84   80   87 1   
    85   80   88 1   
    86   81   82 1   
    87   81   89 1   
    88   81   90 1   
    89   82   83 1   
    90   82   84 2   
    91   83   91 1   
    92   83   92 1   
    93   93   94 1   
    94   93  100 1   
    95   94   95 1   
    96   94   97 1   
    97   94  101 1   
    98   95   96 2   
    99   95  109 1   
   100   97   98 1   
   101   97   99 1   
   102   97  102 1   
   103   98  103 1   
   104   98  104 1   
   105   98  105 1   
   106   99  106 1   
   107   99  107 1   
   108   99  108 1   
   109  109  110 1   
   110  109  117 1   
   111  110  111 1   
   112  110  113 1   
   113  110  118 1   
   114  111  112 2   
   115  111  123 1   
   116  113  114 1   
   117  113  119 1   
   118  113  120 1   
   119  114  115 1   
   120  114  116 2   
   121  115  121 1   
   122  115  122 1   
   123  123  124 1   
   124  123  135 1   
   125  124  125 1   
   126  124  127 1   
   127  124  136 1   
   128  125  126 2   
   129  125  144 1   
   130  127  128 1   
   131  127  137 1   
   132  127  138 1   
   133  128  129 ar  
   134  128  130 ar  
   135  129  131 ar  
   136  129  139 1   
   137  130  132 ar  
   138  130  140 1   
   139  131  133 ar  
   140  131  141 1   
   141  132  133 ar  
   142  132  142 1   
   143  133  134 1   
   144  134  143 1   
   145  144  145 1   
   146  144  153 1   
   147  145  146 1   
   148  145  148 1   
   149  145  154 1   
   150  146  147 2   
   151  146  159 1   
   152  148  149 1   
   153  148  155 1   
   154  148  156 1   
   155  149  150 1   
   156  149  157 1   
   157  149  158 1   
   158  150  151 1   
   159  150  152 1   
   160  159  160 1   
   161  159  168 1   
   162  160  161 1   
   163  160  163 1   
   164  160  169 1   
   165  161  162 2   
   166  161  174 1   
   167  163  164 1   
   168  163  170 1   
   169  163  171 1   
   170  164  165 1   
   171  164  172 1   
   172  164  173 1   
   173  165  166 1   
   174  165  167 1   
   175  174  175 1   
   176  174  179 1   
   177  175  176 1   
   178  175  177 1   
   179  175  178 1   
   180  181  182 1   
   181  181  183 1   
   182  184  185 1   
   183  184  186 1   
@<TRIPOS>SUBSTRUCTURE
     1 MOL         1 TEMP              0 ****  ****    0 ROOT
