@<TRIPOS>MOLECULE
MOL
  189   185     1     0     0
SMALL
resp


@<TRIPOS>ATOM
      1 C1         -0.5620    3.0230    6.0120 c3        1 MOL     -0.362994
      2 C2         -0.8020    2.8120    4.5310 c         1 MOL      0.695693
      3 O1          0.0810    2.9230    3.6700 o         1 MOL     -0.675763
      4 H1          0.5100    3.0370    6.2070 hc        1 MOL      0.105205
      5 H2         -1.0010    3.9720    6.3210 hc        1 MOL      0.105205
      6 H3         -1.0220    2.2090    6.5740 hc        1 MOL      0.105205
      7 N1         -2.0550    2.4500    4.0920 n         1 MOL     -0.625977
      8 C3         -2.3810    2.0960    2.7200 c3        1 MOL      0.218174
      9 C4         -2.6970    3.3120    1.8240 c         1 MOL      0.546114
     10 O2         -3.7880    3.8540    1.8470 o         1 MOL     -0.529648
     11 C5         -3.6110    1.1200    2.7810 c3        1 MOL     -0.220382
     12 C6         -4.1980    0.7190    1.3660 c         1 MOL      0.671466
     13 O3         -3.5610    1.0560    0.3740 o         1 MOL     -0.624264
     14 O4         -5.3570    0.2420    1.2870 o         1 MOL     -0.624264
     15 H4         -2.6660    2.0600    4.8000 hn        1 MOL      0.330581
     16 H5         -1.6060    1.5200    2.2150 h1        1 MOL     -0.087178
     17 H6         -4.3440    1.5620    3.4470 hc        1 MOL      0.057876
     18 H7         -3.2190    0.1790    3.1680 hc        1 MOL      0.057876
     19 N2         -1.7540    3.6910    0.9680 n         1 MOL     -0.402977
     20 C7         -1.7170    5.0270    0.3160 c3        1 MOL     -0.162772
     21 C8         -2.2550    5.0190   -1.1630 c         1 MOL      0.538182
     22 O5         -2.1080    6.0120   -1.8860 o         1 MOL     -0.568743
     23 C9         -0.2760    5.5710    0.2930 c3        1 MOL     -0.102718
     24 C10         0.4010    5.6710    1.7150 c3        1 MOL      0.316707
     25 C11         1.6000    6.6240    1.6880 c3        1 MOL     -0.423297
     26 C12         2.6960    6.1980    0.6940 c3        1 MOL      0.358330
     27 N3          3.6740    7.2270    0.5120 n4        1 MOL     -0.371920
     28 H8         -0.9330    3.1160    0.8080 hn        1 MOL      0.439890
     29 H9         -2.2590    5.6850    1.0000 h1        1 MOL      0.127168
     30 H10        -0.2580    6.5860   -0.1060 hc        1 MOL      0.035604
     31 H11         0.2970    4.8180   -0.2520 hc        1 MOL      0.035604
     32 H12         0.7510    4.6800    2.0080 hc        1 MOL      0.013898
     33 H13        -0.3280    6.0990    2.4140 hc        1 MOL      0.013898
     34 H14         2.0450    6.5010    2.6760 hc        1 MOL      0.083039
     35 H15         1.2500    7.6140    1.3950 hc        1 MOL      0.083039
     36 H16         2.1280    6.0490   -0.2220 hx        1 MOL     -0.001093
     37 H17         3.1280    5.2270    0.9100 hx        1 MOL     -0.001093
     38 H18         4.1780    7.3200    1.3910 hn        1 MOL      0.316880
     39 H19         4.3080    7.1040   -0.2560 hn        1 MOL      0.316880
     40 H20         3.1900    8.1140    0.4420 hn        1 MOL      0.316880
     41 N4         -3.0170    3.9690   -1.4440 n         1 MOL     -0.098188
     42 C13        -3.9990    4.0090   -2.5280 c3        1 MOL     -0.249961
     43 C14        -5.3590    3.3260   -2.2570 c         1 MOL      0.553355
     44 O6         -6.3340    3.4440   -2.9360 o         1 MOL     -0.518970
     45 C15        -3.3830    3.5160   -3.8070 c3        1 MOL     -0.145855
     46 C16        -2.6730    2.1510   -3.7870 c         1 MOL      0.791712
     47 O7         -3.0210    1.2930   -2.9210 o         1 MOL     -0.723433
     48 O8         -1.8270    1.9140   -4.6640 o         1 MOL     -0.723433
     49 H21        -2.9720    3.2510   -0.7320 hn        1 MOL     -0.098962
     50 H22        -4.1710    5.0790   -2.6640 h1        1 MOL      0.157370
     51 H23        -2.6570    4.2530   -4.1290 hc        1 MOL      0.053578
     52 H24        -4.1100    3.4740   -4.6200 hc        1 MOL      0.053578
     53 N5         -5.4510    2.7340   -1.0220 n         1 MOL     -0.237893
     54 C17        -6.7900    2.3800   -0.4890 c3        1 MOL     -0.355575
     55 C18        -7.4700    1.0930   -1.0060 c         1 MOL      0.647422
     56 O9         -8.6860    0.8720   -0.8000 o         1 MOL     -0.587079
     57 H25        -4.5790    2.4410   -0.5980 hn        1 MOL      0.334503
     58 H26        -7.4700    3.2250   -0.6020 h1        1 MOL      0.153653
     59 H27        -6.6020    2.1360    0.5570 h1        1 MOL      0.153653
     60 N6         -6.7700    0.1230   -1.5960 n         1 MOL     -0.407626
     61 C19        -7.3730   -1.2180   -1.9910 c3        1 MOL      0.071857
     62 C20        -7.5280   -2.2330   -0.7910 c         1 MOL      0.376046
     63 O10        -8.1700   -3.2580   -0.9810 o         1 MOL     -0.528519
     64 C21        -6.4280   -1.8340   -2.9630 c3        1 MOL     -0.281631
     65 C22        -5.0900   -2.1860   -2.3340 c         1 MOL      0.860215
     66 O11        -4.2590   -1.2660   -2.0730 o         1 MOL     -0.732723
     67 O12        -4.7110   -3.4170   -2.2210 o         1 MOL     -0.732723
     68 H28        -5.8010    0.2840   -1.8330 hn        1 MOL      0.255343
     69 H29        -8.3340   -1.1220   -2.5000 h1        1 MOL      0.109701
     70 H30        -6.1850   -1.2340   -3.8340 hc        1 MOL      0.082416
     71 H31        -6.9050   -2.7230   -3.3830 hc        1 MOL      0.082416
     72 N7         -6.8990   -1.9370    0.3420 n         1 MOL     -0.063692
     73 C23        -6.8800   -2.8200    1.4900 c3        1 MOL     -0.227373
     74 C24        -5.6490   -3.7390    1.6540 c         1 MOL      0.512724
     75 O13        -5.5700   -4.4830    2.6360 o         1 MOL     -0.566268
     76 H32        -6.3110   -1.1270    0.3490 hn        1 MOL      0.141679
     77 H33        -7.7160   -3.5170    1.4110 h1        1 MOL      0.111614
     78 H34        -7.0530   -2.3190    2.4520 h1        1 MOL      0.111614
     79 N8         -4.6230   -3.6210    0.7540 n         1 MOL     -0.086778
     80 C25        -3.3300   -4.3470    1.0000 c3        1 MOL     -0.194197
     81 C26        -2.0600   -3.3700    0.9580 c         1 MOL      0.663048
     82 O14        -2.1890   -2.2060    0.5420 o         1 MOL     -0.709335
     83 C27        -3.2020   -5.4710   -0.0680 c3        1 MOL      0.312120
     84 C28        -4.4750   -6.1500   -0.4770 c3        1 MOL     -0.425307
     85 O15        -2.6420   -4.9220   -1.2680 oh        1 MOL     -0.672821
     86 H35        -4.6900   -2.9870   -0.0360 hn        1 MOL      0.095799
     87 H36        -3.2840   -4.7760    2.0070 h1        1 MOL      0.072084
     88 H37        -2.4340   -6.1790    0.2510 h1        1 MOL      0.022090
     89 H38        -3.3950   -4.4910   -1.6840 ho        1 MOL      0.456332
     90 H39        -5.1970   -5.5040   -0.9660 hc        1 MOL      0.115232
     91 H40        -4.2160   -6.9450   -1.1890 hc        1 MOL      0.115232
     92 H41        -4.9400   -6.5770    0.4050 hc        1 MOL      0.115232
     93 N9         -0.9500   -3.8630    1.4450 n         1 MOL     -0.325338
     94 C29         0.2610   -3.1020    1.6990 c3        1 MOL      0.105056
     95 C30         1.3890   -3.5810    0.7470 c         1 MOL      0.242530
     96 O16         1.7760   -4.7720    0.9010 o         1 MOL     -0.529812
     97 C31         0.6470   -3.1370    3.2700 c3        1 MOL      0.071032
     98 C32        -0.4320   -2.5940    4.2070 c3        1 MOL     -0.129272
     99 C33         2.0140   -2.6510    3.5860 c3        1 MOL     -0.057129
    100 C34        -0.6370   -1.1400    3.9810 c3        1 MOL     -0.085771
    101 H42        -0.9400   -4.7860    1.8790 hn        1 MOL      0.246627
    102 H43         0.0670   -2.0760    1.3870 h1        1 MOL     -0.026542
    103 H44         0.5930   -4.1660    3.6290 hc        1 MOL      0.009426
    104 H45        -0.0600   -2.7010    5.2200 hc        1 MOL      0.050782
    105 H46        -1.3890   -3.0980    4.0710 hc        1 MOL      0.050782
    106 H47         2.2050   -1.6020    3.3400 hc        1 MOL      0.005173
    107 H48         2.1850   -2.8490    4.6440 hc        1 MOL      0.005173
    108 H49         2.7840   -3.2810    3.1280 hc        1 MOL      0.005173
    109 H50        -0.9690   -0.9040    2.9740 hc        1 MOL      0.036735
    110 H51        -1.5200   -0.8080    4.5250 hc        1 MOL      0.036735
    111 H52         0.2270   -0.5440    4.2660 hc        1 MOL      0.036735
    112 N10         2.0250   -2.7230   -0.0570 n         1 MOL      0.037151
    113 C35         3.2150   -3.1220   -0.8990 c3        1 MOL     -0.037430
    114 C36         4.5200   -2.9240   -0.1410 c         1 MOL      0.251370
    115 O17         4.5250   -2.3800    0.9320 o         1 MOL     -0.244205
    116 C37         3.3510   -2.1580   -2.1460 c3        1 MOL      0.103486
    117 C38         2.0610   -2.1530   -2.9540 c3        1 MOL     -0.385866
    118 O18         3.4920   -0.8060   -1.6530 oh        1 MOL     -0.379976
    119 H53         1.6370   -1.7930   -0.0930 hn        1 MOL      0.249236
    120 H54         3.0900   -4.1380   -1.2830 h1        1 MOL      0.097056
    121 H55         4.1860   -2.2980   -2.8350 h1        1 MOL      0.040561
    122 H56         3.3620   -0.2020   -2.3830 ho        1 MOL      0.353141
    123 H57         2.1850   -1.4550   -3.7840 hc        1 MOL      0.100819
    124 H58         1.8640   -3.1880   -3.2280 hc        1 MOL      0.100819
    125 H59         1.2970   -1.8110   -2.2560 hc        1 MOL      0.100819
    126 N11         5.6560   -3.2400   -0.7880 n         1 MOL     -0.224480
    127 C39         6.9830   -3.0760   -0.1750 c3        1 MOL     -0.149803
    128 C40         7.3350   -1.6490    0.2370 c         1 MOL      0.295565
    129 O19         7.8360   -1.4650    1.2950 o         1 MOL     -0.452650
    130 C41         8.1230   -3.4930   -1.1370 c3        1 MOL      0.260479
    131 C42         8.0140   -5.0360   -1.3930 c3        1 MOL     -0.460501
    132 O20         8.0720   -2.9810   -2.4810 oh        1 MOL     -0.671654
    133 H60         5.5950   -3.7880   -1.6440 hn        1 MOL      0.245538
    134 H61         6.9930   -3.6640    0.7380 h1        1 MOL      0.168999
    135 H62         9.1040   -3.2760   -0.6990 h1        1 MOL      0.074356
    136 H63         8.7790   -3.2780   -3.0550 ho        1 MOL      0.416674
    137 H64         8.9310   -5.3800   -1.8630 hc        1 MOL      0.134316
    138 H65         7.9490   -5.5580   -0.4430 hc        1 MOL      0.134316
    139 H66         7.1720   -5.3300   -2.0170 hc        1 MOL      0.134316
    140 N12         6.9000   -0.6150   -0.5320 n         1 MOL     -0.050473
    141 C43         7.0370    0.8050   -0.1790 c3        1 MOL      0.026852
    142 C44         6.0590    1.3120    0.8510 c         1 MOL      0.367322
    143 O21         6.4020    2.0420    1.7860 o         1 MOL     -0.509068
    144 C45         6.9500    1.6660   -1.4200 c3        1 MOL     -0.198448
    145 C46         8.2160    1.5040   -2.2770 c3        1 MOL     -0.004636
    146 C47         8.3330    2.2930   -3.5710 c3        1 MOL      0.114057
    147 C48         9.6540    2.1040   -4.3330 c3        1 MOL     -0.208390
    148 N13        10.0630    0.7700   -4.7810 n4        1 MOL     -0.098488
    149 H67         6.3530   -0.8960   -1.3330 hn        1 MOL      0.127656
    150 H68         7.9520    0.8840    0.4180 h1        1 MOL      0.088184
    151 H69         6.8300    2.7300   -1.1900 hc        1 MOL      0.063528
    152 H70         6.0820    1.3630   -2.0100 hc        1 MOL      0.063528
    153 H71         8.4520    0.4430   -2.3640 hc        1 MOL      0.005830
    154 H72         9.0540    1.8510   -1.6770 hc        1 MOL      0.005830
    155 H73         8.1860    3.3720   -3.4210 hc        1 MOL      0.019216
    156 H74         7.5080    1.9110   -4.1610 hc        1 MOL      0.019216
    157 H75        10.4330    2.3900   -3.6190 hx        1 MOL      0.135754
    158 H76         9.5630    2.7450   -5.2060 hx        1 MOL      0.135754
    159 H77        10.9000    0.6990   -5.3390 hn        1 MOL      0.222995
    160 H78        10.1320    0.0660   -4.0610 hn        1 MOL      0.222995
    161 H79         9.3700    0.4360   -5.4330 hn        1 MOL      0.222995
    162 N14         4.8040    0.8440    0.8530 n         1 MOL     -0.094482
    163 C49         3.8470    1.2400    1.9220 c3        1 MOL     -0.322953
    164 C50         4.3150    0.6460    3.2560 c         1 MOL      0.506126
    165 O22         4.2950    1.3040    4.3080 o         1 MOL     -0.542022
    166 C51         2.4310    0.7270    1.5360 c3        1 MOL      0.036003
    167 C52         1.9080    1.4190    0.2550 c3        1 MOL      0.004778
    168 C53         0.5760    0.9010   -0.1500 c         1 MOL      0.538803
    169 O23         0.4220   -0.3640   -0.1660 o         1 MOL     -0.659374
    170 O24        -0.3810    1.6490   -0.3820 o         1 MOL     -0.659374
    171 H80         4.5080    0.3040    0.0520 hn        1 MOL      0.115259
    172 H81         3.9180    2.3270    2.0230 h1        1 MOL      0.164591
    173 H82         1.6800    1.0460    2.2710 hc        1 MOL      0.105770
    174 H83         2.4070   -0.3600    1.4620 hc        1 MOL      0.105770
    175 H84         2.6670    1.2520   -0.5210 hc        1 MOL     -0.075205
    176 H85         1.6840    2.4760    0.4110 hc        1 MOL     -0.075205
    177 N15         5.0050   -0.5110    3.1640 n         1 MOL      0.013675
    178 C54         5.4630   -1.2910    4.2700 c3        1 MOL     -0.366305
    179 H86         6.0120   -0.6520    4.9610 h1        1 MOL      0.123287
    180 H87         4.6070   -1.7300    4.7840 h1        1 MOL      0.123287
    181 H88         6.1170   -2.0840    3.9100 h1        1 MOL      0.123287
    182 H89         5.0280   -0.8960    2.2320 hn        1 MOL      0.022579
    183 Ca1        -1.9760   -0.2610   -1.1240 Ca        1 MOL      1.758296
    184 O25        -0.2850    0.1730   -3.1630 oh        1 MOL     -0.815726
    185 H90         0.3810   -0.2630   -3.6930 ho        1 MOL      0.388630
    186 H91        -0.7110    0.7780   -3.7770 ho        1 MOL      0.388630
    187 O26        -1.4790   -2.5580   -2.5720 oh        1 MOL     -0.815726
    188 H92        -2.2070   -2.8340   -3.1160 ho        1 MOL      0.388630
    189 H93        -1.2010   -3.3630   -2.1270 ho        1 MOL      0.388630
@<TRIPOS>BOND
     1    1    2 1   
     2    1    4 1   
     3    1    5 1   
     4    1    6 1   
     5    2    3 2   
     6    2    7 1   
     7    7    8 1   
     8    7   15 1   
     9    8    9 1   
    10    8   11 1   
    11    8   16 1   
    12    9   10 2   
    13    9   19 1   
    14   11   12 1   
    15   11   17 1   
    16   11   18 1   
    17   12   13 1   
    18   12   14 1   
    19   19   20 1   
    20   19   28 1   
    21   20   21 1   
    22   20   23 1   
    23   20   29 1   
    24   21   22 2   
    25   21   41 1   
    26   23   24 1   
    27   23   30 1   
    28   23   31 1   
    29   24   25 1   
    30   24   32 1   
    31   24   33 1   
    32   25   26 1   
    33   25   34 1   
    34   25   35 1   
    35   26   27 1   
    36   26   36 1   
    37   26   37 1   
    38   27   38 1   
    39   27   39 1   
    40   27   40 1   
    41   41   42 1   
    42   41   49 1   
    43   42   43 1   
    44   42   45 1   
    45   42   50 1   
    46   43   44 2   
    47   43   53 1   
    48   45   46 1   
    49   45   51 1   
    50   45   52 1   
    51   46   47 1   
    52   46   48 1   
    53   53   54 1   
    54   53   57 1   
    55   54   55 1   
    56   54   58 1   
    57   54   59 1   
    58   55   56 2   
    59   55   60 1   
    60   60   61 1   
    61   60   68 1   
    62   61   62 1   
    63   61   64 1   
    64   61   69 1   
    65   62   63 2   
    66   62   72 1   
    67   64   65 1   
    68   64   70 1   
    69   64   71 1   
    70   65   66 1   
    71   65   67 1   
    72   72   73 1   
    73   72   76 1   
    74   73   74 1   
    75   73   77 1   
    76   73   78 1   
    77   74   75 2   
    78   74   79 1   
    79   79   80 1   
    80   79   86 1   
    81   80   81 1   
    82   80   83 1   
    83   80   87 1   
    84   81   82 2   
    85   81   93 1   
    86   83   84 1   
    87   83   85 1   
    88   83   88 1   
    89   84   90 1   
    90   84   91 1   
    91   84   92 1   
    92   85   89 1   
    93   93   94 1   
    94   93  101 1   
    95   94   95 1   
    96   94   97 1   
    97   94  102 1   
    98   95   96 2   
    99   95  112 1   
   100   97   98 1   
   101   97   99 1   
   102   97  103 1   
   103   98  100 1   
   104   98  104 1   
   105   98  105 1   
   106   99  106 1   
   107   99  107 1   
   108   99  108 1   
   109  100  109 1   
   110  100  110 1   
   111  100  111 1   
   112  112  113 1   
   113  112  119 1   
   114  113  114 1   
   115  113  116 1   
   116  113  120 1   
   117  114  115 2   
   118  114  126 1   
   119  116  117 1   
   120  116  118 1   
   121  116  121 1   
   122  117  123 1   
   123  117  124 1   
   124  117  125 1   
   125  118  122 1   
   126  126  127 1   
   127  126  133 1   
   128  127  128 1   
   129  127  130 1   
   130  127  134 1   
   131  128  129 2   
   132  128  140 1   
   133  130  131 1   
   134  130  132 1   
   135  130  135 1   
   136  131  137 1   
   137  131  138 1   
   138  131  139 1   
   139  132  136 1   
   140  140  141 1   
   141  140  149 1   
   142  141  142 1   
   143  141  144 1   
   144  141  150 1   
   145  142  143 2   
   146  142  162 1   
   147  144  145 1   
   148  144  151 1   
   149  144  152 1   
   150  145  146 1   
   151  145  153 1   
   152  145  154 1   
   153  146  147 1   
   154  146  155 1   
   155  146  156 1   
   156  147  148 1   
   157  147  157 1   
   158  147  158 1   
   159  148  159 1   
   160  148  160 1   
   161  148  161 1   
   162  162  163 1   
   163  162  171 1   
   164  163  164 1   
   165  163  166 1   
   166  163  172 1   
   167  164  165 2   
   168  164  177 1   
   169  166  167 1   
   170  166  173 1   
   171  166  174 1   
   172  167  168 1   
   173  167  175 1   
   174  167  176 1   
   175  168  169 1   
   176  168  170 1   
   177  177  178 1   
   178  177  182 1   
   179  178  179 1   
   180  178  180 1   
   181  178  181 1   
   182  184  185 1   
   183  184  186 1   
   184  187  188 1   
   185  187  189 1   
@<TRIPOS>SUBSTRUCTURE
     1 MOL         1 TEMP              0 ****  ****    0 ROOT
