@<TRIPOS>MOLECULE
MOL
  183   181     1     0     0
SMALL
resp


@<TRIPOS>ATOM
      1 C1         -0.4530    1.3070    6.6690 c3        1 MOL     -0.366342
      2 C2         -0.7250    1.4040    5.1440 c         1 MOL      0.766708
      3 O1          0.1540    1.8520    4.4100 o         1 MOL     -0.561663
      4 H1         -1.3420    0.9260    7.1720 hc        1 MOL      0.080351
      5 H2          0.3820    0.6290    6.8470 hc        1 MOL      0.080351
      6 H3         -0.2090    2.2950    7.0600 hc        1 MOL      0.080351
      7 N1         -1.9780    1.0580    4.7400 n         1 MOL     -0.644253
      8 C3         -2.4760    1.1730    3.3330 c3        1 MOL      0.108796
      9 C4         -2.7660    2.6460    2.9310 c         1 MOL      0.588742
     10 O2         -3.2330    3.4070    3.7590 o         1 MOL     -0.568360
     11 C5         -3.8320    0.3560    3.1980 c3        1 MOL     -0.054811
     12 C6         -4.5180    0.4060    1.8670 c         1 MOL      0.707065
     13 O3         -5.7940    0.2150    1.8660 o         1 MOL     -0.720400
     14 O4         -3.9790    0.5060    0.7370 o         1 MOL     -0.720400
     15 H4         -2.5960    0.6450    5.4240 hn        1 MOL      0.323092
     16 H5         -1.7250    0.7960    2.6350 h1        1 MOL      0.008548
     17 H6         -4.5870    0.6500    3.9350 hc        1 MOL      0.015069
     18 H7         -3.5620   -0.6760    3.3900 hc        1 MOL      0.015069
     19 N2         -2.3690    3.0330    1.6800 n         1 MOL     -0.415939
     20 C7         -2.5120    4.4130    1.2240 c3        1 MOL     -0.070665
     21 C8         -3.8020    4.5720    0.4470 c         1 MOL      0.612661
     22 O5         -4.3170    5.6610    0.4090 o         1 MOL     -0.618292
     23 C9         -1.2700    4.9430    0.4720 c3        1 MOL      0.239735
     24 C10        -0.0560    4.9430    1.3960 c3        1 MOL      0.076966
     25 C11        -1.3900    6.3610   -0.1450 c3        1 MOL     -0.325603
     26 C12         1.2520    5.3800    0.7200 c3        1 MOL     -0.109819
     27 H8         -2.0120    2.3650    1.0050 hn        1 MOL      0.253625
     28 H9         -2.6990    5.0480    2.0920 h1        1 MOL      0.049888
     29 H10        -1.0250    4.2130   -0.3010 hc        1 MOL      0.007863
     30 H11         0.1820    3.9520    1.7700 hc        1 MOL     -0.025805
     31 H12        -0.2090    5.7250    2.1420 hc        1 MOL     -0.025805
     32 H13        -2.3050    6.4140   -0.7290 hc        1 MOL      0.072460
     33 H14        -1.5110    7.2040    0.5390 hc        1 MOL      0.072460
     34 H15        -0.6830    6.5700   -0.9400 hc        1 MOL      0.072460
     35 H16         1.1210    6.4400    0.4850 hc        1 MOL      0.011177
     36 H17         2.0470    5.2790    1.4600 hc        1 MOL      0.011177
     37 H18         1.4280    4.8300   -0.2030 hc        1 MOL      0.011177
     38 N3         -4.4150    3.5960   -0.2000 n         1 MOL     -0.440221
     39 C13        -5.3750    3.8540   -1.3310 c3        1 MOL      0.179345
     40 C14        -6.4770    2.8390   -1.3520 c         1 MOL      0.353782
     41 O6         -6.9970    2.5690   -2.4150 o         1 MOL     -0.475601
     42 C15        -4.4740    3.9930   -2.5780 c3        1 MOL     -0.209166
     43 C16        -3.5180    2.8680   -2.8660 c         1 MOL      0.761545
     44 O7         -2.8780    2.8590   -3.9060 o         1 MOL     -0.707461
     45 O8         -3.4270    1.8480   -2.1420 o         1 MOL     -0.707461
     46 H19        -4.1120    2.6450   -0.0680 hn        1 MOL      0.199718
     47 H20        -5.8430    4.8050   -1.0550 h1        1 MOL      0.028676
     48 H21        -3.9300    4.9300   -2.4190 hc        1 MOL      0.037627
     49 H22        -5.1670    4.1190   -3.4070 hc        1 MOL      0.037627
     50 N4         -6.9860    2.4520   -0.2080 n         1 MOL     -0.189648
     51 C17        -8.2520    1.7000    0.0150 c3        1 MOL     -0.197730
     52 C18        -8.3300    0.3770   -0.8340 c         1 MOL      0.657464
     53 O9         -9.2350    0.2510   -1.6220 o         1 MOL     -0.595285
     54 H23        -6.5520    2.8180    0.6320 hn        1 MOL      0.218333
     55 H24        -9.0580    2.4100   -0.1880 h1        1 MOL      0.076780
     56 H25        -8.4630    1.3900    1.0290 h1        1 MOL      0.076780
     57 N5         -7.5220   -0.6140   -0.5100 n         1 MOL     -0.506985
     58 C19        -7.5700   -1.9880   -0.9730 c3        1 MOL      0.042422
     59 C20        -7.0680   -3.0840    0.0340 c         1 MOL      0.404953
     60 O10        -7.1260   -4.2460   -0.2670 o         1 MOL     -0.516280
     61 C21        -6.7910   -2.0210   -2.3040 c3        1 MOL     -0.070024
     62 C22        -5.2950   -1.5770   -2.1050 c         1 MOL      0.667584
     63 O11        -4.6640   -0.9590   -3.0040 o         1 MOL     -0.698275
     64 O12        -4.7450   -2.0720   -1.1170 o         1 MOL     -0.698275
     65 H26        -6.7450   -0.4110    0.1040 hn        1 MOL      0.324640
     66 H27        -8.5390   -2.3860   -1.2370 h1        1 MOL      0.073089
     67 H28        -7.3210   -1.3780   -3.0030 hc        1 MOL      0.019547
     68 H29        -6.8330   -3.0530   -2.6270 hc        1 MOL      0.019547
     69 N6         -6.6610   -2.6900    1.2400 n         1 MOL     -0.247400
     70 C23        -6.1780   -3.4090    2.3790 c3        1 MOL      0.030400
     71 C24        -5.0270   -4.3810    2.0310 c         1 MOL      0.399093
     72 O13        -4.7310   -5.4350    2.6290 o         1 MOL     -0.603705
     73 H30        -6.6340   -1.7110    1.4700 hn        1 MOL      0.183233
     74 H31        -7.0090   -3.9540    2.8380 h1        1 MOL      0.035385
     75 H32        -5.8440   -2.7140    3.1470 h1        1 MOL      0.035385
     76 N7         -4.2010   -4.0430    1.0820 n         1 MOL     -0.074615
     77 C25        -2.7940   -4.4960    0.8460 c3        1 MOL     -0.033682
     78 C26        -1.8280   -3.3140    0.8630 c         1 MOL      0.562837
     79 O14        -2.0800   -2.1730    0.5200 o         1 MOL     -0.610741
     80 C27        -2.7230   -5.4250   -0.3950 c3        1 MOL     -0.040730
     81 C28        -2.9210   -4.9580   -1.8390 c3        1 MOL     -0.234335
     82 C29        -1.8980   -4.0340   -2.4070 c         1 MOL      0.586329
     83 N8         -0.8450   -4.5900   -3.0590 n         1 MOL     -0.831030
     84 O15        -2.0310   -2.8080   -2.2630 o         1 MOL     -0.528330
     85 H33        -4.4960   -3.2450    0.5310 hn        1 MOL      0.163457
     86 H34        -2.4920   -5.0760    1.7170 h1        1 MOL      0.057436
     87 H35        -3.4610   -6.2090   -0.2700 hc        1 MOL      0.024906
     88 H36        -1.7450   -5.9060   -0.4200 hc        1 MOL      0.024906
     89 H37        -3.9470   -4.5830   -1.9530 hc        1 MOL      0.096610
     90 H38        -2.8930   -5.8450   -2.4630 hc        1 MOL      0.096610
     91 H39        -0.5640   -5.5560   -2.9570 hn        1 MOL      0.392037
     92 H40        -0.2530   -3.8360   -3.3790 hn        1 MOL      0.392037
     93 N9         -0.5760   -3.6150    1.2900 n         1 MOL     -0.355717
     94 C30         0.5410   -2.6350    1.4880 c3        1 MOL     -0.092390
     95 C31         1.7850   -2.9520    0.7340 c         1 MOL      0.415279
     96 O16         2.5050   -3.9420    1.0340 o         1 MOL     -0.568677
     97 C32         0.7730   -2.5940    2.9700 c3        1 MOL      0.145805
     98 C33         1.8470   -1.5630    3.3870 c3        1 MOL     -0.410130
     99 C34        -0.4740   -2.1270    3.7590 c3        1 MOL     -0.410130
    100 H41        -0.3530   -4.5900    1.4550 hn        1 MOL      0.249643
    101 H42         0.1440   -1.6710    1.1810 h1        1 MOL      0.235708
    102 H43         0.9790   -3.5760    3.4060 hc        1 MOL      0.034377
    103 H44         1.6130   -0.5090    3.2530 hc        1 MOL      0.102391
    104 H45         1.9940   -1.4540    4.4640 hc        1 MOL      0.102391
    105 H46         2.7840   -1.6500    2.8440 hc        1 MOL      0.102391
    106 H47        -0.8750   -1.1970    3.3640 hc        1 MOL      0.102391
    107 H48        -1.3280   -2.7870    3.6070 hc        1 MOL      0.102391
    108 H49        -0.2360   -2.1680    4.8240 hc        1 MOL      0.102391
    109 N10         2.2030   -2.1080   -0.1760 n         1 MOL     -0.076125
    110 C35         3.3110   -2.2600   -1.0520 c3        1 MOL     -0.056938
    111 C36         4.5960   -1.8060   -0.3770 c         1 MOL      0.529362
    112 O17         4.4930   -1.0680    0.6220 o         1 MOL     -0.347813
    113 C37         3.0160   -1.5740   -2.4420 c3        1 MOL     -0.218008
    114 C38         1.8380   -2.1680   -3.1650 c         1 MOL      0.729587
    115 N11         0.7940   -1.4450   -3.1910 n         1 MOL     -0.667470
    116 O18         1.9000   -3.1790   -3.8130 o         1 MOL     -0.643142
    117 H50         1.6250   -1.2810   -0.2550 hn        1 MOL      0.028370
    118 H51         3.4940   -3.3170   -1.2370 h1        1 MOL      0.077647
    119 H52         3.8630   -1.8880   -3.0580 hc        1 MOL      0.048802
    120 H53         2.8710   -0.5090   -2.2960 hc        1 MOL      0.048802
    121 H54         0.5790   -0.7110   -2.5240 hn        1 MOL      0.290199
    122 H55        -0.0090   -1.6670   -3.7720 hn        1 MOL      0.290199
    123 N12         5.7850   -2.2540   -0.9200 n         1 MOL     -0.671518
    124 C39         7.0610   -1.7150   -0.2780 c3        1 MOL      0.244951
    125 C40         7.1550   -0.1370   -0.3480 c         1 MOL      0.497459
    126 O19         7.4420    0.4030    0.6870 o         1 MOL     -0.473509
    127 C41         8.2560   -2.4030   -1.0080 c3        1 MOL     -0.270632
    128 C42         9.5810   -1.9870   -0.4260 ca        1 MOL      0.113123
    129 C43         9.8790   -2.3660    0.8980 ca        1 MOL     -0.228289
    130 C44        10.4890   -1.1140   -1.0820 ca        1 MOL     -0.228289
    131 C45        11.0540   -1.9880    1.5510 ca        1 MOL     -0.200654
    132 C46        11.5660   -0.5470   -0.3870 ca        1 MOL     -0.200654
    133 C47        11.8980   -1.0380    0.8930 ca        1 MOL      0.292634
    134 O20        12.9820   -0.5290    1.5470 oh        1 MOL     -0.520464
    135 H56         5.8620   -2.9150   -1.6800 hn        1 MOL      0.354413
    136 H57         7.1210   -1.9880    0.7760 h1        1 MOL      0.077798
    137 H58         8.2160   -2.1520   -2.0660 hc        1 MOL      0.079098
    138 H59         8.2340   -3.4740   -0.8000 hc        1 MOL      0.079098
    139 H60         9.1480   -3.0030    1.3720 ha        1 MOL      0.146377
    140 H61        10.2430   -0.7840   -2.0770 ha        1 MOL      0.146377
    141 H62        11.1620   -2.2560    2.5910 ha        1 MOL      0.141496
    142 H63        12.1550    0.2080   -0.8690 ha        1 MOL      0.141496
    143 H64        13.3540    0.2450    1.1320 ho        1 MOL      0.377615
    144 N13         6.7500    0.4990   -1.4380 n         1 MOL     -0.417785
    145 C48         6.5160    1.9960   -1.4110 c3        1 MOL      0.054957
    146 C49         5.4820    2.5730   -0.3760 c         1 MOL      0.345626
    147 O21         5.8040    3.6690    0.1730 o         1 MOL     -0.510398
    148 C50         6.2300    2.5020   -2.8340 c3        1 MOL      0.220324
    149 C51         4.7910    2.2470   -3.3700 c3        1 MOL     -0.046149
    150 C52         4.6300    2.6910   -4.8330 c         1 MOL      0.699154
    151 O22         3.6380    3.2570   -5.2820 o         1 MOL     -0.727959
    152 O23         5.6550    2.5660   -5.5370 o         1 MOL     -0.727959
    153 H65         6.4640   -0.0900   -2.2070 hn        1 MOL      0.310959
    154 H66         7.5210    2.3750   -1.2200 h1        1 MOL      0.046890
    155 H67         6.9030    1.9160   -3.4610 hc        1 MOL     -0.077877
    156 H68         6.5010    3.5580   -2.9370 hc        1 MOL     -0.077877
    157 H69         4.0130    2.7580   -2.8070 hc        1 MOL     -0.055657
    158 H70         4.6530    1.1650   -3.2600 hc        1 MOL     -0.055657
    159 N14         4.4530    1.7880   -0.0530 n         1 MOL     -0.229069
    160 C53         3.5900    2.1450    1.1050 c3        1 MOL     -0.026239
    161 C54         4.2830    1.8310    2.4640 c         1 MOL      0.455682
    162 O24         3.9780    2.4500    3.4680 o         1 MOL     -0.553874
    163 C55         2.2300    1.3440    1.0450 c3        1 MOL      0.126825
    164 C56         1.5270    1.4780   -0.3230 c3        1 MOL     -0.085355
    165 C57         0.1420    0.8380   -0.3460 c         1 MOL      0.650673
    166 O25        -0.9520    1.4240   -0.0620 o         1 MOL     -0.695509
    167 O26         0.0030   -0.2770   -0.9010 o         1 MOL     -0.695509
    168 H71         4.2300    0.8940   -0.4730 hn        1 MOL      0.175041
    169 H72         3.4830    3.2330    1.1590 h1        1 MOL      0.091831
    170 H73         1.5530    1.6970    1.8240 hc        1 MOL      0.020215
    171 H74         2.3680    0.2760    1.2290 hc        1 MOL      0.020215
    172 H75         2.2050    1.0410   -1.0510 hc        1 MOL      0.075888
    173 H76         1.4530    2.4580   -0.7950 hc        1 MOL      0.075888
    174 N15         5.1520    0.8210    2.5330 n         1 MOL      0.011951
    175 C58         5.6990    0.2950    3.8300 c3        1 MOL     -0.399135
    176 H77         4.8740    0.0600    4.5030 h1        1 MOL      0.128655
    177 H78         6.2810   -0.6070    3.6410 h1        1 MOL      0.128655
    178 H79         6.3370    1.0500    4.2890 h1        1 MOL      0.128655
    179 H80         5.5300    0.3730    1.7120 hn        1 MOL     -0.022814
    180 Ca1        -2.6130   -0.3910   -1.2940 Ca        1 MOL      1.752727
    181 O27        -2.0820   -0.3840   -3.9500 oh        1 MOL     -0.764890
    182 H81        -2.1340    0.3420   -4.5710 ho        1 MOL      0.389309
    183 H82        -2.1440   -1.1650   -4.4990 ho        1 MOL      0.389309
@<TRIPOS>BOND
     1    1    2 1   
     2    1    4 1   
     3    1    5 1   
     4    1    6 1   
     5    2    3 2   
     6    2    7 1   
     7    7    8 1   
     8    7   15 1   
     9    8    9 1   
    10    8   11 1   
    11    8   16 1   
    12    9   10 2   
    13    9   19 1   
    14   11   12 1   
    15   11   17 1   
    16   11   18 1   
    17   12   13 1   
    18   12   14 1   
    19   19   20 1   
    20   19   27 1   
    21   20   21 1   
    22   20   23 1   
    23   20   28 1   
    24   21   22 2   
    25   21   38 1   
    26   23   24 1   
    27   23   25 1   
    28   23   29 1   
    29   24   26 1   
    30   24   30 1   
    31   24   31 1   
    32   25   32 1   
    33   25   33 1   
    34   25   34 1   
    35   26   35 1   
    36   26   36 1   
    37   26   37 1   
    38   38   39 1   
    39   38   46 1   
    40   39   40 1   
    41   39   42 1   
    42   39   47 1   
    43   40   41 2   
    44   40   50 1   
    45   42   43 1   
    46   42   48 1   
    47   42   49 1   
    48   43   44 1   
    49   43   45 1   
    50   50   51 1   
    51   50   54 1   
    52   51   52 1   
    53   51   55 1   
    54   51   56 1   
    55   52   53 2   
    56   52   57 1   
    57   57   58 1   
    58   57   65 1   
    59   58   59 1   
    60   58   61 1   
    61   58   66 1   
    62   59   60 2   
    63   59   69 1   
    64   61   62 1   
    65   61   67 1   
    66   61   68 1   
    67   62   63 1   
    68   62   64 1   
    69   69   70 1   
    70   69   73 1   
    71   70   71 1   
    72   70   74 1   
    73   70   75 1   
    74   71   72 2   
    75   71   76 1   
    76   76   77 1   
    77   76   85 1   
    78   77   78 1   
    79   77   80 1   
    80   77   86 1   
    81   78   79 2   
    82   78   93 1   
    83   80   81 1   
    84   80   87 1   
    85   80   88 1   
    86   81   82 1   
    87   81   89 1   
    88   81   90 1   
    89   82   83 1   
    90   82   84 2   
    91   83   91 1   
    92   83   92 1   
    93   93   94 1   
    94   93  100 1   
    95   94   95 1   
    96   94   97 1   
    97   94  101 1   
    98   95   96 2   
    99   95  109 1   
   100   97   98 1   
   101   97   99 1   
   102   97  102 1   
   103   98  103 1   
   104   98  104 1   
   105   98  105 1   
   106   99  106 1   
   107   99  107 1   
   108   99  108 1   
   109  109  110 1   
   110  109  117 1   
   111  110  111 1   
   112  110  113 1   
   113  110  118 1   
   114  111  112 2   
   115  111  123 1   
   116  113  114 1   
   117  113  119 1   
   118  113  120 1   
   119  114  115 1   
   120  114  116 2   
   121  115  121 1   
   122  115  122 1   
   123  123  124 1   
   124  123  135 1   
   125  124  125 1   
   126  124  127 1   
   127  124  136 1   
   128  125  126 2   
   129  125  144 1   
   130  127  128 1   
   131  127  137 1   
   132  127  138 1   
   133  128  129 ar  
   134  128  130 ar  
   135  129  131 ar  
   136  129  139 1   
   137  130  132 ar  
   138  130  140 1   
   139  131  133 ar  
   140  131  141 1   
   141  132  133 ar  
   142  132  142 1   
   143  133  134 1   
   144  134  143 1   
   145  144  145 1   
   146  144  153 1   
   147  145  146 1   
   148  145  148 1   
   149  145  154 1   
   150  146  147 2   
   151  146  159 1   
   152  148  149 1   
   153  148  155 1   
   154  148  156 1   
   155  149  150 1   
   156  149  157 1   
   157  149  158 1   
   158  150  151 1   
   159  150  152 1   
   160  159  160 1   
   161  159  168 1   
   162  160  161 1   
   163  160  163 1   
   164  160  169 1   
   165  161  162 2   
   166  161  174 1   
   167  163  164 1   
   168  163  170 1   
   169  163  171 1   
   170  164  165 1   
   171  164  172 1   
   172  164  173 1   
   173  165  166 1   
   174  165  167 1   
   175  174  175 1   
   176  174  179 1   
   177  175  176 1   
   178  175  177 1   
   179  175  178 1   
   180  181  182 1   
   181  181  183 1   
@<TRIPOS>SUBSTRUCTURE
     1 MOL         1 TEMP              0 ****  ****    0 ROOT
