@<TRIPOS>MOLECULE
MOL
  189   185     1     0     0
SMALL
resp


@<TRIPOS>ATOM
      1 C1          0.1640   -4.0370    5.9610 c3        1 MOL     -0.541301
      2 C2          0.7690   -3.5630    4.5840 c         1 MOL      0.784714
      3 O1          0.9220   -2.3690    4.3500 o         1 MOL     -0.605939
      4 H1         -0.3600   -3.2060    6.4330 hc        1 MOL      0.138251
      5 H2         -0.5340   -4.8550    5.7890 hc        1 MOL      0.138251
      6 H3          0.9680   -4.3760    6.6150 hc        1 MOL      0.138251
      7 N1          1.0190   -4.4910    3.6820 n         1 MOL     -0.622876
      8 C3          1.6740   -4.0720    2.4200 c3        1 MOL      0.230291
      9 C4          1.4550   -5.0470    1.2590 c         1 MOL      0.419825
     10 O2          1.3460   -6.2730    1.4990 o         1 MOL     -0.589410
     11 C5          3.2360   -3.9780    2.6270 c3        1 MOL     -0.228796
     12 C6          3.9080   -3.1050    1.5200 c         1 MOL      0.768374
     13 O3          5.1330   -2.9000    1.6560 o         1 MOL     -0.688691
     14 O4          3.2570   -2.6950    0.4890 o         1 MOL     -0.688691
     15 H4          0.4680   -5.3470    3.6490 hn        1 MOL      0.322616
     16 H5          1.3630   -3.0640    2.1270 h1        1 MOL      0.051702
     17 H6          3.7020   -4.9580    2.7370 hc        1 MOL      0.048458
     18 H7          3.3660   -3.4340    3.5700 hc        1 MOL      0.048458
     19 N2          1.2450   -4.5160    0.0510 n         1 MOL     -0.164266
     20 C7          1.0420   -5.2800   -1.1470 c3        1 MOL      0.036198
     21 C8          2.1820   -5.1970   -2.2140 c         1 MOL      0.468628
     22 O5          2.3550   -6.1600   -3.0270 o         1 MOL     -0.585829
     23 C9         -0.4120   -5.0270   -1.7030 c3        1 MOL      0.223534
     24 C10        -1.4250   -5.2810   -0.5460 c3        1 MOL      0.011535
     25 C11        -0.7630   -5.9200   -2.8990 c3        1 MOL     -0.228968
     26 C12        -2.8430   -4.9070   -0.9120 c3        1 MOL     -0.119932
     27 H8          0.9830   -3.5450   -0.0360 hn        1 MOL      0.148328
     28 H9          1.0610   -6.3390   -0.8790 h1        1 MOL      0.015234
     29 H10        -0.5600   -4.0020   -2.0300 hc        1 MOL      0.008321
     30 H11        -1.1910   -4.5120    0.1800 hc        1 MOL     -0.003708
     31 H12        -1.3870   -6.2640   -0.0650 hc        1 MOL     -0.003708
     32 H13        -0.1460   -5.6000   -3.7390 hc        1 MOL      0.037281
     33 H14        -0.5860   -6.9730   -2.6950 hc        1 MOL      0.037281
     34 H15        -1.8070   -5.8440   -3.2080 hc        1 MOL      0.037281
     35 H16        -3.4740   -4.8150   -0.0240 hc        1 MOL      0.020376
     36 H17        -2.9660   -3.9550   -1.4210 hc        1 MOL      0.020376
     37 H18        -3.2220   -5.6930   -1.5580 hc        1 MOL      0.020376
     38 N3          2.8960   -4.0500   -2.2880 n         1 MOL     -0.352593
     39 C13         3.7770   -3.7510   -3.4330 c3        1 MOL      0.206568
     40 C14         5.1880   -3.3460   -2.9350 c         1 MOL      0.264163
     41 O6          6.1240   -3.3350   -3.7620 o         1 MOL     -0.543860
     42 C15         3.1590   -2.5920   -4.2030 c3        1 MOL     -0.362455
     43 C16         2.8150   -1.3540   -3.3500 c         1 MOL      0.795485
     44 O7          3.1690   -1.1990   -2.1670 o         1 MOL     -0.714308
     45 O8          2.0830   -0.4310   -3.8430 o         1 MOL     -0.714308
     46 H19         2.8060   -3.4420   -1.4950 hn        1 MOL      0.175672
     47 H20         3.8700   -4.5900   -4.1280 h1        1 MOL      0.077401
     48 H21         2.2750   -2.9280   -4.7320 hc        1 MOL      0.094435
     49 H22         3.9650   -2.2100   -4.8370 hc        1 MOL      0.094435
     50 N4          5.4500   -3.1190   -1.6720 n         1 MOL     -0.034865
     51 C17         6.7200   -2.7860   -1.1160 c3        1 MOL     -0.316591
     52 C18         7.2060   -1.3340   -1.3360 c         1 MOL      0.532936
     53 O9          8.3860   -1.1080   -1.2140 o         1 MOL     -0.587425
     54 H23         4.6850   -3.2200   -1.0280 hn        1 MOL      0.119782
     55 H24         7.5510   -3.3360   -1.5510 h1        1 MOL      0.131775
     56 H25         6.7590   -2.9210   -0.0320 h1        1 MOL      0.131775
     57 N5          6.2880   -0.4120   -1.6670 n         1 MOL     -0.147211
     58 C19         6.7740    0.8700   -2.0590 c3        1 MOL      0.074271
     59 C20         7.3450    1.8330   -0.9420 c         1 MOL      0.376857
     60 O10         8.2030    2.6860   -1.1220 o         1 MOL     -0.545920
     61 C21         5.6700    1.5060   -2.8950 c3        1 MOL     -0.333956
     62 C22         4.3720    1.8580   -2.1840 c         1 MOL      0.832700
     63 O11         4.2490    1.5240   -0.9970 o         1 MOL     -0.688624
     64 O12         3.5400    2.5710   -2.7540 o         1 MOL     -0.688624
     65 H26         5.3180   -0.6470   -1.7440 hn        1 MOL      0.191477
     66 H27         7.6090    0.6510   -2.7200 h1        1 MOL      0.052009
     67 H28         5.4280    0.7580   -3.6480 hc        1 MOL      0.074354
     68 H29         6.0490    2.4040   -3.3720 hc        1 MOL      0.074354
     69 N6          6.7950    1.6740    0.2770 n         1 MOL     -0.087806
     70 C23         6.8810    2.4510    1.5170 c3        1 MOL     -0.217796
     71 C24         5.8600    3.4660    1.7290 c         1 MOL      0.676207
     72 O13         6.0510    4.3160    2.5580 o         1 MOL     -0.659882
     73 H30         6.1960    0.8510    0.2480 hn        1 MOL      0.061811
     74 H31         7.8480    2.9620    1.4260 h1        1 MOL      0.085424
     75 H32         6.9140    1.7800    2.3770 h1        1 MOL      0.085424
     76 N7          4.7350    3.3570    1.0720 n         1 MOL     -0.335729
     77 C25         3.4920    4.1680    1.2590 c3        1 MOL     -0.030957
     78 C26         2.2150    3.2540    1.4040 c         1 MOL      0.440223
     79 O14         2.4270    2.0530    1.4410 o         1 MOL     -0.502851
     80 C27         3.3090    5.1490    0.0640 c3        1 MOL      0.093986
     81 C28         4.4090    6.2220   -0.0780 c3        1 MOL     -0.345743
     82 C29         4.0430    7.3380   -0.9750 c         1 MOL      0.765730
     83 N8          4.9300    8.2650   -1.1600 n         1 MOL     -0.825397
     84 O15         2.8550    7.6340   -1.3130 o         1 MOL     -0.592031
     85 H33         4.6710    2.6310    0.3830 hn        1 MOL      0.235226
     86 H34         3.6210    4.8970    2.0590 h1        1 MOL      0.060070
     87 H35         2.3890    5.6940    0.2890 hc        1 MOL      0.005156
     88 H36         3.0910    4.5890   -0.8460 hc        1 MOL      0.005156
     89 H37         5.3550    5.7780   -0.3850 hc        1 MOL      0.103745
     90 H38         4.4840    6.7110    0.9000 hc        1 MOL      0.103745
     91 H39         5.8960    8.1450   -0.8740 hn        1 MOL      0.350084
     92 H40         4.6740    9.2120   -1.3980 hn        1 MOL      0.350084
     93 N9          1.1520    3.7770    1.9200 n         1 MOL     -0.339549
     94 C30        -0.0210    3.0120    2.2990 c3        1 MOL     -0.100330
     95 C31        -1.1330    3.4160    1.3800 c         1 MOL      0.472931
     96 O16        -1.7120    4.4310    1.4660 o         1 MOL     -0.582709
     97 C32        -0.3630    3.4320    3.7750 c3        1 MOL      0.404973
     98 C33        -1.4990    2.6300    4.4400 c3        1 MOL     -0.265861
     99 C34         0.8660    3.3290    4.6780 c3        1 MOL     -0.265861
    100 H41         1.2980    4.7200    2.2430 hn        1 MOL      0.285479
    101 H42         0.0470    1.9210    2.3340 h1        1 MOL      0.109786
    102 H43        -0.6690    4.4720    3.7490 hc        1 MOL     -0.067699
    103 H44        -2.3660    2.6310    3.7910 hc        1 MOL      0.043799
    104 H45        -1.2110    1.6300    4.7480 hc        1 MOL      0.043799
    105 H46        -1.8010    3.2370    5.3040 hc        1 MOL      0.043799
    106 H47         1.4520    4.2500    4.6060 hc        1 MOL      0.043799
    107 H48         0.5380    3.2410    5.7030 hc        1 MOL      0.043799
    108 H49         1.5040    2.4990    4.3920 hc        1 MOL      0.043799
    109 N10        -1.4500    2.6010    0.4630 n         1 MOL     -0.289121
    110 C35        -2.6690    2.6230   -0.3940 c3        1 MOL      0.212485
    111 C36        -3.9700    2.3630    0.4290 c         1 MOL      0.134090
    112 O17        -3.9410    1.8080    1.5420 o         1 MOL     -0.288829
    113 C37        -2.4450    1.7560   -1.6360 c3        1 MOL     -0.292408
    114 C38        -3.5750    1.6980   -2.6770 c         1 MOL      0.693249
    115 N11        -3.7460    2.7970   -3.4170 n         1 MOL     -0.772183
    116 O18        -4.4370    0.7820   -2.6440 o         1 MOL     -0.567403
    117 H50        -0.9450    1.7340    0.5650 hn        1 MOL      0.187994
    118 H51        -2.9080    3.6010   -0.8110 h1        1 MOL      0.020505
    119 H52        -2.2810    0.7390   -1.2840 hc        1 MOL      0.104714
    120 H53        -1.4830    1.9890   -2.0820 hc        1 MOL      0.104714
    121 H54        -3.2620    3.5950   -3.0490 hn        1 MOL      0.346492
    122 H55        -4.5980    2.8140   -3.9610 hn        1 MOL      0.346492
    123 N12        -5.1080    2.7530   -0.1190 n         1 MOL     -0.143696
    124 C39        -6.3200    2.5320    0.5750 c3        1 MOL      0.201382
    125 C40        -6.6310    1.0570    0.8010 c         1 MOL      0.325502
    126 O19        -7.3070    0.7740    1.7660 o         1 MOL     -0.594053
    127 C41        -7.4280    3.2010   -0.2570 c3        1 MOL     -0.335339
    128 C42        -7.2470    2.8900   -1.7910 ca        1 MOL      0.079519
    129 C43        -6.8320    3.9070   -2.7040 ca        1 MOL     -0.111546
    130 C44        -7.6790    1.7140   -2.3080 ca        1 MOL     -0.111546
    131 C45        -6.8040    3.5640   -4.1050 ca        1 MOL     -0.343079
    132 C46        -7.6210    1.3360   -3.6550 ca        1 MOL     -0.343079
    133 C47        -7.0760    2.2760   -4.5960 ca        1 MOL      0.515614
    134 O20        -7.0830    2.0430   -5.8980 oh        1 MOL     -0.614421
    135 H56        -5.1390    3.3220   -0.9530 hn        1 MOL      0.142736
    136 H57        -6.3240    2.9800    1.5710 h1        1 MOL      0.029477
    137 H58        -7.4300    4.2680   -0.0220 hc        1 MOL      0.104485
    138 H59        -8.3790    2.7900    0.0840 hc        1 MOL      0.104485
    139 H60        -6.6000    4.9200   -2.4000 ha        1 MOL      0.104422
    140 H61        -8.0530    1.0010   -1.5870 ha        1 MOL      0.104422
    141 H62        -6.4200    4.2520   -4.8400 ha        1 MOL      0.130808
    142 H63        -7.9760    0.3900   -4.0310 ha        1 MOL      0.130808
    143 H64        -7.4540    1.1800   -6.0820 ho        1 MOL      0.446192
    144 N13        -6.1900    0.1200    0.0010 n         1 MOL      0.434482
    145 C48        -6.3360   -1.3360    0.2250 c3        1 MOL     -0.534317
    146 C49        -5.5130   -1.8560    1.4620 c         1 MOL      0.559970
    147 O21        -5.7670   -2.9410    1.9460 o         1 MOL     -0.538874
    148 C50        -6.0900   -2.1390   -1.0420 c3        1 MOL      0.170339
    149 C51        -7.1000   -2.0700   -2.1750 c3        1 MOL     -0.244974
    150 C52        -8.5950   -2.1110   -1.6850 c         1 MOL      0.677881
    151 O22        -9.4070   -1.3290   -2.1250 o         1 MOL     -0.693483
    152 O23        -8.9020   -2.8760   -0.7620 o         1 MOL     -0.693483
    153 H65        -5.8250    0.3740   -0.9040 hn        1 MOL      0.038381
    154 H66        -7.3370   -1.5220    0.6230 h1        1 MOL      0.200189
    155 H67        -6.0710   -3.2010   -0.8140 hc        1 MOL      0.012309
    156 H68        -5.0950   -1.8520   -1.3730 hc        1 MOL      0.012309
    157 H69        -6.9530   -2.9850   -2.7510 hc        1 MOL      0.026621
    158 H70        -6.9720   -1.1920   -2.7960 hc        1 MOL      0.026621
    159 N14        -4.4750   -1.1340    1.8790 n         1 MOL     -0.246145
    160 C53        -3.5060   -1.5760    2.8920 c3        1 MOL      0.014473
    161 C54        -3.7880   -0.8180    4.2490 c         1 MOL      0.357870
    162 O24        -3.5760   -1.4690    5.2770 o         1 MOL     -0.545668
    163 C55        -2.0340   -1.2770    2.4300 c3        1 MOL      0.197408
    164 C56        -1.7350   -1.8620    1.0820 c3        1 MOL      0.041546
    165 C57        -0.4420   -1.2640    0.4460 c         1 MOL      0.666329
    166 O25         0.4020   -2.0230   -0.0900 o         1 MOL     -0.677255
    167 O26        -0.1910   -0.0130    0.3220 o         1 MOL     -0.677255
    168 H71        -4.3550   -0.2020    1.5090 hn        1 MOL      0.008086
    169 H72        -3.4530   -2.6200    3.1980 h1        1 MOL      0.071637
    170 H73        -1.2820   -1.7580    3.0590 hc        1 MOL     -0.045566
    171 H74        -1.8140   -0.2060    2.4190 hc        1 MOL     -0.045566
    172 H75        -2.5790   -1.7030    0.4040 hc        1 MOL     -0.030670
    173 H76        -1.6230   -2.9440    1.1170 hc        1 MOL     -0.030670
    174 N15        -4.3600    0.3950    4.2440 n         1 MOL     -0.033913
    175 C58        -4.8080    1.0970    5.4320 c3        1 MOL     -0.068534
    176 H77        -4.4440    0.5790    6.3200 h1        1 MOL      0.038818
    177 H78        -4.4190    2.1150    5.4210 h1        1 MOL      0.038818
    178 H79        -5.8980    1.1240    5.4490 h1        1 MOL      0.038818
    179 H80        -4.4600    0.8950    3.3720 hn        1 MOL      0.086910
    180 Ca1         2.5080   -0.1990    0.1730 Ca        1 MOL      1.678098
    181 O27         2.0000   -0.4710    2.9940 oh        1 MOL     -0.859730
    182 H81         1.6090   -0.9830    3.7120 ho        1 MOL      0.402400
    183 H82         2.7590   -0.0520    3.3960 ho        1 MOL      0.402400
    184 O28         1.4670    1.3260   -1.9700 oh        1 MOL     -0.859730
    185 H83         2.1280    1.9740   -2.2220 ho        1 MOL      0.402400
    186 H84         1.5830    0.6010   -2.5820 ho        1 MOL      0.402400
    187 O29         4.6660   -0.2380    1.7100 oh        1 MOL     -0.859730
    188 H85         4.9210   -1.1550    1.6840 ho        1 MOL      0.402400
    189 H86         4.9880    0.0820    2.5480 ho        1 MOL      0.402400
@<TRIPOS>BOND
     1    1    2 1   
     2    1    4 1   
     3    1    5 1   
     4    1    6 1   
     5    2    3 2   
     6    2    7 1   
     7    7    8 1   
     8    7   15 1   
     9    8    9 1   
    10    8   11 1   
    11    8   16 1   
    12    9   10 2   
    13    9   19 1   
    14   11   12 1   
    15   11   17 1   
    16   11   18 1   
    17   12   13 1   
    18   12   14 1   
    19   19   20 1   
    20   19   27 1   
    21   20   21 1   
    22   20   23 1   
    23   20   28 1   
    24   21   22 2   
    25   21   38 1   
    26   23   24 1   
    27   23   25 1   
    28   23   29 1   
    29   24   26 1   
    30   24   30 1   
    31   24   31 1   
    32   25   32 1   
    33   25   33 1   
    34   25   34 1   
    35   26   35 1   
    36   26   36 1   
    37   26   37 1   
    38   38   39 1   
    39   38   46 1   
    40   39   40 1   
    41   39   42 1   
    42   39   47 1   
    43   40   41 2   
    44   40   50 1   
    45   42   43 1   
    46   42   48 1   
    47   42   49 1   
    48   43   44 1   
    49   43   45 1   
    50   50   51 1   
    51   50   54 1   
    52   51   52 1   
    53   51   55 1   
    54   51   56 1   
    55   52   53 2   
    56   52   57 1   
    57   57   58 1   
    58   57   65 1   
    59   58   59 1   
    60   58   61 1   
    61   58   66 1   
    62   59   60 2   
    63   59   69 1   
    64   61   62 1   
    65   61   67 1   
    66   61   68 1   
    67   62   63 1   
    68   62   64 1   
    69   69   70 1   
    70   69   73 1   
    71   70   71 1   
    72   70   74 1   
    73   70   75 1   
    74   71   72 2   
    75   71   76 1   
    76   76   77 1   
    77   76   85 1   
    78   77   78 1   
    79   77   80 1   
    80   77   86 1   
    81   78   79 2   
    82   78   93 1   
    83   80   81 1   
    84   80   87 1   
    85   80   88 1   
    86   81   82 1   
    87   81   89 1   
    88   81   90 1   
    89   82   83 1   
    90   82   84 2   
    91   83   91 1   
    92   83   92 1   
    93   93   94 1   
    94   93  100 1   
    95   94   95 1   
    96   94   97 1   
    97   94  101 1   
    98   95   96 2   
    99   95  109 1   
   100   97   98 1   
   101   97   99 1   
   102   97  102 1   
   103   98  103 1   
   104   98  104 1   
   105   98  105 1   
   106   99  106 1   
   107   99  107 1   
   108   99  108 1   
   109  109  110 1   
   110  109  117 1   
   111  110  111 1   
   112  110  113 1   
   113  110  118 1   
   114  111  112 2   
   115  111  123 1   
   116  113  114 1   
   117  113  119 1   
   118  113  120 1   
   119  114  115 1   
   120  114  116 2   
   121  115  121 1   
   122  115  122 1   
   123  123  124 1   
   124  123  135 1   
   125  124  125 1   
   126  124  127 1   
   127  124  136 1   
   128  125  126 2   
   129  125  144 1   
   130  127  128 1   
   131  127  137 1   
   132  127  138 1   
   133  128  129 ar  
   134  128  130 ar  
   135  129  131 ar  
   136  129  139 1   
   137  130  132 ar  
   138  130  140 1   
   139  131  133 ar  
   140  131  141 1   
   141  132  133 ar  
   142  132  142 1   
   143  133  134 1   
   144  134  143 1   
   145  144  145 1   
   146  144  153 1   
   147  145  146 1   
   148  145  148 1   
   149  145  154 1   
   150  146  147 2   
   151  146  159 1   
   152  148  149 1   
   153  148  155 1   
   154  148  156 1   
   155  149  150 1   
   156  149  157 1   
   157  149  158 1   
   158  150  151 1   
   159  150  152 1   
   160  159  160 1   
   161  159  168 1   
   162  160  161 1   
   163  160  163 1   
   164  160  169 1   
   165  161  162 2   
   166  161  174 1   
   167  163  164 1   
   168  163  170 1   
   169  163  171 1   
   170  164  165 1   
   171  164  172 1   
   172  164  173 1   
   173  165  166 1   
   174  165  167 1   
   175  174  175 1   
   176  174  179 1   
   177  175  176 1   
   178  175  177 1   
   179  175  178 1   
   180  181  182 1   
   181  181  183 1   
   182  184  185 1   
   183  184  186 1   
   184  187  188 1   
   185  187  189 1   
@<TRIPOS>SUBSTRUCTURE
     1 MOL         1 TEMP              0 ****  ****    0 ROOT
