@<TRIPOS>MOLECULE
MOL
  172   171     1     0     0
SMALL
resp


@<TRIPOS>ATOM
      1 C1          0.2830    3.9900    5.5810 c3        1 MOL     -0.520987
      2 C2         -0.3020    3.8360    4.1530 c         1 MOL      0.696062
      3 O1          0.4060    3.9530    3.2070 o         1 MOL     -0.541518
      4 H1          1.1940    3.3980    5.6660 hc        1 MOL      0.128200
      5 H2          0.5120    5.0380    5.7700 hc        1 MOL      0.128200
      6 H3         -0.4460    3.6400    6.3130 hc        1 MOL      0.128200
      7 N1         -1.5940    3.5530    3.9890 n         1 MOL     -0.542663
      8 C3         -2.3590    3.3660    2.7800 c3        1 MOL      0.334036
      9 C4         -2.4550    4.5920    1.8360 c         1 MOL      0.417076
     10 O2         -3.1200    5.5920    2.1540 o         1 MOL     -0.577326
     11 C5         -3.7480    2.8740    3.0560 c3        1 MOL     -0.508295
     12 C6         -4.5070    2.2550    1.8470 c         1 MOL      0.870768
     13 O3         -5.8000    2.1970    1.8970 o         1 MOL     -0.706122
     14 O4         -3.8600    1.8560    0.8200 o         1 MOL     -0.706122
     15 H4         -2.1460    3.5890    4.8340 hn        1 MOL      0.276834
     16 H5         -1.8210    2.5470    2.3020 h1        1 MOL      0.013799
     17 H6         -4.3400    3.7420    3.3460 hc        1 MOL      0.099315
     18 H7         -3.6030    2.0990    3.8150 hc        1 MOL      0.099315
     19 N2         -1.9690    4.4500    0.6030 n         1 MOL     -0.389648
     20 C7         -2.0390    5.4730   -0.4060 c3        1 MOL      0.528667
     21 C8         -3.1000    5.2690   -1.4730 c         1 MOL      0.312512
     22 O5         -3.2360    6.2190   -2.2240 o         1 MOL     -0.559958
     23 C9         -0.5790    5.6470   -0.9840 c3        1 MOL     -0.167273
     24 H8         -1.5720    3.5610    0.3400 hn        1 MOL      0.197979
     25 H9         -2.2020    6.4930   -0.0540 h1        1 MOL     -0.042561
     26 H10        -0.0190    5.9230   -0.0800 hc        1 MOL      0.024552
     27 H11        -0.2160    4.6860   -1.3490 hc        1 MOL      0.024552
     28 H12        -0.4910    6.4230   -1.7420 hc        1 MOL      0.024552
     29 N3         -3.7600    4.0940   -1.6720 n         1 MOL     -0.316603
     30 C10        -4.6180    3.7480   -2.8470 c3        1 MOL      0.085400
     31 C11        -5.8390    2.8570   -2.5390 c         1 MOL      0.355956
     32 O6         -6.5760    2.6120   -3.5300 o         1 MOL     -0.536787
     33 C12        -3.7270    2.9280   -3.7520 c3        1 MOL     -0.267987
     34 C13        -3.2230    1.5800   -3.1870 c         1 MOL      0.750074
     35 O7         -3.6800    1.0430   -2.1420 o         1 MOL     -0.692527
     36 O8         -2.2730    1.0450   -3.8110 o         1 MOL     -0.692527
     37 H13        -3.4470    3.3560   -1.0510 hn        1 MOL      0.180949
     38 H14        -4.8750    4.6470   -3.4020 h1        1 MOL      0.102733
     39 H15        -2.8700    3.5690   -3.9580 hc        1 MOL      0.074209
     40 H16        -4.3180    2.6910   -4.6400 hc        1 MOL      0.074209
     41 N4         -6.0820    2.4480   -1.2890 n         1 MOL     -0.223860
     42 C14        -7.3050    1.6950   -0.8650 c3        1 MOL     -0.171451
     43 C15        -7.2920    0.1770   -1.1170 c         1 MOL      0.474595
     44 O9         -8.3570   -0.4580   -0.8790 o         1 MOL     -0.600835
     45 H17        -5.4390    2.6280   -0.5370 hn        1 MOL      0.163531
     46 H18        -8.1390    2.1820   -1.3730 h1        1 MOL      0.128545
     47 H19        -7.6150    1.8350    0.1690 h1        1 MOL      0.128545
     48 N5         -6.1310   -0.4060   -1.4850 n         1 MOL     -0.320125
     49 C16        -6.1340   -1.8030   -2.1060 c3        1 MOL      0.051752
     50 C17        -6.1610   -3.0170   -1.1700 c         1 MOL      0.477660
     51 O10        -6.2150   -4.0920   -1.7050 o         1 MOL     -0.525550
     52 C18        -4.9610   -1.8550   -3.1280 c3        1 MOL     -0.162827
     53 C19        -3.5750   -2.0500   -2.5410 c         1 MOL      0.604933
     54 N6         -2.6270   -2.3680   -3.3560 n         1 MOL     -0.603394
     55 O11        -3.3250   -2.0740   -1.3670 o         1 MOL     -0.589533
     56 H20        -5.2760    0.1170   -1.6180 hn        1 MOL      0.283267
     57 H21        -7.0010   -2.0720   -2.7010 h1        1 MOL      0.095650
     58 H22        -4.8350   -0.8940   -3.6300 hc        1 MOL      0.049737
     59 H23        -5.1280   -2.6220   -3.8800 hc        1 MOL      0.049737
     60 H24        -2.9280   -2.4610   -4.3090 hn        1 MOL      0.312868
     61 H25        -1.6400   -2.2300   -3.1790 hn        1 MOL      0.312868
     62 N7         -6.1960   -2.9600    0.1780 n         1 MOL     -0.294199
     63 C20        -6.3810   -4.0460    1.1000 c3        1 MOL     -0.093609
     64 C21        -5.0370   -4.7160    1.4270 c         1 MOL      0.439505
     65 O12        -5.0540   -5.7800    2.1130 o         1 MOL     -0.555402
     66 H26        -6.1840   -2.0200    0.5580 hn        1 MOL      0.261979
     67 H27        -7.1630   -4.7260    0.7840 h1        1 MOL      0.086419
     68 H28        -6.7340   -3.6610    2.0580 h1        1 MOL      0.086419
     69 N8         -3.8690   -4.1030    1.1040 n         1 MOL     -0.181234
     70 C22        -2.5540   -4.6970    1.2630 c3        1 MOL     -0.388115
     71 C23        -1.5270   -3.5900    1.4570 c         1 MOL      0.670346
     72 O13        -1.6440   -2.5460    0.8430 o         1 MOL     -0.531884
     73 C24        -2.1410   -5.4550   -0.0030 c3        1 MOL      0.571246
     74 C25        -2.8520   -6.7810   -0.0650 c3        1 MOL     -0.670001
     75 O14        -2.5130   -4.7970   -1.1600 oh        1 MOL     -0.583919
     76 H29        -3.8250   -3.2060    0.6340 hn        1 MOL      0.332829
     77 H30        -2.5390   -5.3370    2.1390 h1        1 MOL      0.136748
     78 H31        -1.0680   -5.6440    0.0180 h1        1 MOL     -0.010812
     79 H32        -2.4400   -3.8400   -1.1030 ho        1 MOL      0.314497
     80 H33        -2.3820   -7.3080   -0.9000 hc        1 MOL      0.165661
     81 H34        -2.7620   -7.3150    0.8740 hc        1 MOL      0.165661
     82 H35        -3.9270   -6.7660   -0.1810 hc        1 MOL      0.165661
     83 N9         -0.5070   -3.8550    2.2350 n         1 MOL     -0.717042
     84 C26         0.6760   -3.0180    2.1770 c3        1 MOL      0.075279
     85 C27         1.4080   -3.3080    0.8410 c         1 MOL      0.657182
     86 O15         1.5800   -4.4290    0.4680 o         1 MOL     -0.577697
     87 C28         1.4810   -2.9990    3.4560 c3        1 MOL      0.016081
     88 C29         0.5030   -2.7150    4.5660 c3        1 MOL      0.114056
     89 C30         2.6550   -1.8680    3.4850 c3        1 MOL     -0.328199
     90 C31         1.0540   -2.4420    5.9400 c3        1 MOL     -0.345504
     91 H36        -0.4370   -4.6870    2.8110 hn        1 MOL      0.384435
     92 H37         0.3390   -1.9830    2.1060 h1        1 MOL      0.115987
     93 H38         1.6980   -4.0730    3.5010 hc        1 MOL      0.007179
     94 H39        -0.1840   -3.5640    4.5330 hc        1 MOL      0.001703
     95 H40        -0.1110   -1.8470    4.3300 hc        1 MOL      0.001703
     96 H41         2.2530   -0.8580    3.6340 hc        1 MOL      0.089329
     97 H42         3.3330   -2.0210    4.3200 hc        1 MOL      0.089329
     98 H43         3.2990   -1.8080    2.6110 hc        1 MOL      0.089329
     99 H44         0.2360   -2.5830    6.6490 hc        1 MOL      0.082729
    100 H45         1.8950   -3.0680    6.2100 hc        1 MOL      0.082729
    101 H46         1.2360   -1.3640    5.9760 hc        1 MOL      0.082729
    102 N10         1.8080   -2.2190    0.1710 n         1 MOL     -0.342439
    103 C32         2.6410   -2.1630   -1.0480 c3        1 MOL      0.073658
    104 C33         4.0600   -1.7360   -0.7340 c         1 MOL      0.530839
    105 O16         4.3100   -1.2620    0.3470 o         1 MOL     -0.391000
    106 C34         1.9730   -1.0990   -1.8950 c3        1 MOL     -0.368047
    107 C35         0.5060   -1.2520   -2.2870 c         1 MOL      0.890792
    108 O17        -0.3570   -0.6160   -1.6990 o         1 MOL     -0.709513
    109 O18         0.2300   -1.9560   -3.2780 o         1 MOL     -0.709513
    110 H47         1.7290   -1.3270    0.6220 hn        1 MOL     -0.032900
    111 H48         2.6080   -3.1120   -1.5820 h1        1 MOL      0.088220
    112 H49         2.4830   -1.0360   -2.8560 hc        1 MOL      0.097932
    113 H50         1.9490   -0.1150   -1.4240 hc        1 MOL      0.097932
    114 N11         5.0300   -1.7720   -1.6840 n         1 MOL     -0.753652
    115 C36         6.4380   -1.5070   -1.3790 c3        1 MOL      0.477852
    116 C37         6.7040   -0.1460   -0.8540 c         1 MOL      0.250806
    117 O19         7.2840   -0.0980    0.2300 o         1 MOL     -0.501560
    118 C38         7.3620   -1.9630   -2.5360 c3        1 MOL     -0.181348
    119 C39         8.8510   -1.6060   -2.4690 ca        1 MOL     -0.008274
    120 C40         9.5160   -1.8980   -1.3200 ca        1 MOL     -0.042660
    121 C41         9.4450   -0.9300   -3.5600 ca        1 MOL     -0.042660
    122 C42        10.8650   -1.4890   -1.2570 ca        1 MOL     -0.220885
    123 C43        10.7720   -0.4990   -3.5380 ca        1 MOL     -0.220885
    124 C44        11.4270   -0.6720   -2.3170 ca        1 MOL     -0.018585
    125 H51         4.8260   -2.2090   -2.5720 hn        1 MOL      0.348134
    126 H52         6.7280   -2.2320   -0.6240 h1        1 MOL      0.037265
    127 H53         6.9400   -1.5860   -3.4650 hc        1 MOL      0.043475
    128 H54         7.2890   -3.0490   -2.5820 hc        1 MOL      0.043475
    129 H55         8.9240   -2.2760   -0.4970 ha        1 MOL      0.094172
    130 H56         8.8460   -0.6980   -4.4280 ha        1 MOL      0.094172
    131 H57        11.3450   -1.6580   -0.3010 ha        1 MOL      0.140348
    132 H58        11.1860    0.0990   -4.3360 ha        1 MOL      0.140348
    133 H59        12.4380   -0.2870   -2.2780 ha        1 MOL      0.079452
    134 N12         6.3220    0.9970   -1.4940 n         1 MOL     -0.057557
    135 C45         6.4620    2.3600   -0.9000 c3        1 MOL      0.062994
    136 C46         5.7460    2.6100    0.4330 c         1 MOL      0.221133
    137 O20         6.0940    3.5120    1.1780 o         1 MOL     -0.476004
    138 C47         5.8590    3.2980   -1.9770 c3        1 MOL      0.055767
    139 C48         6.0730    2.5100   -3.3190 c3        1 MOL     -0.168966
    140 C49         5.9560    1.0170   -2.8950 c3        1 MOL      0.042198
    141 H60         7.5080    2.6690   -0.8150 h1        1 MOL      0.059076
    142 H61         4.8350    3.5930   -1.7590 hc        1 MOL      0.021523
    143 H62         6.4720    4.1980   -2.0440 hc        1 MOL      0.021523
    144 H63         5.2450    2.7190   -3.9960 hc        1 MOL      0.052869
    145 H64         7.0210    2.7150   -3.8070 hc        1 MOL      0.052869
    146 H65         4.9180    0.7580   -3.1060 h1        1 MOL      0.020187
    147 H66         6.6800    0.4360   -3.4700 h1        1 MOL      0.020187
    148 N13         4.6460    1.8750    0.6760 n         1 MOL     -0.085321
    149 C50         4.0340    1.8440    2.0450 c3        1 MOL     -0.150248
    150 C51         4.8730    1.0270    3.0670 c         1 MOL      0.484579
    151 O21         5.0200    1.5060    4.1810 o         1 MOL     -0.579956
    152 C52         2.6050    1.4240    1.9450 c3        1 MOL     -0.176911
    153 C53         1.7690    2.1240    0.8110 c3        1 MOL     -0.062053
    154 C54         0.3280    1.6230    0.8110 c         1 MOL      0.765161
    155 O22        -0.0820    0.6730    1.5400 o         1 MOL     -0.780259
    156 O23        -0.4790    2.0300   -0.0630 o         1 MOL     -0.780259
    157 H67         4.3430    1.2760   -0.0910 hn        1 MOL      0.165563
    158 H68         4.1480    2.8610    2.4200 h1        1 MOL      0.131897
    159 H69         2.1700    1.5720    2.9380 hc        1 MOL      0.147643
    160 H70         2.5290    0.3830    1.6460 hc        1 MOL      0.147643
    161 H71         2.1990    2.0680   -0.1890 hc        1 MOL      0.038671
    162 H72         1.7070    3.1800    1.0860 hc        1 MOL      0.038671
    163 N14         5.5330   -0.0500    2.6980 n         1 MOL      0.031399
    164 C55         6.3920   -0.8420    3.5080 c3        1 MOL     -0.165196
    165 H73         6.1320   -1.8940    3.3920 h1        1 MOL      0.053481
    166 H74         7.4270   -0.6880    3.2010 h1        1 MOL      0.053481
    167 H75         6.2750   -0.5530    4.5530 h1        1 MOL      0.053481
    168 H76         5.3400   -0.5210    1.8180 hn        1 MOL      0.075646
    169 Ca1        -2.2910    0.0640   -0.1570 Ca        1 MOL      1.744381
    170 O24        -4.0820   -0.9560    1.5550 oh        1 MOL     -1.154733
    171 H77        -3.5080   -0.8250    2.3070 ho        1 MOL      0.492997
    172 H78        -4.9670   -0.9330    1.9170 ho        1 MOL      0.492997
@<TRIPOS>BOND
     1    1    2 1   
     2    1    4 1   
     3    1    5 1   
     4    1    6 1   
     5    2    3 2   
     6    2    7 1   
     7    7    8 1   
     8    7   15 1   
     9    8    9 1   
    10    8   11 1   
    11    8   16 1   
    12    9   10 2   
    13    9   19 1   
    14   11   12 1   
    15   11   17 1   
    16   11   18 1   
    17   12   13 1   
    18   12   14 1   
    19   19   20 1   
    20   19   24 1   
    21   20   21 1   
    22   20   23 1   
    23   20   25 1   
    24   21   22 2   
    25   21   29 1   
    26   23   26 1   
    27   23   27 1   
    28   23   28 1   
    29   29   30 1   
    30   29   37 1   
    31   30   31 1   
    32   30   33 1   
    33   30   38 1   
    34   31   32 2   
    35   31   41 1   
    36   33   34 1   
    37   33   39 1   
    38   33   40 1   
    39   34   35 1   
    40   34   36 1   
    41   41   42 1   
    42   41   45 1   
    43   42   43 1   
    44   42   46 1   
    45   42   47 1   
    46   43   44 2   
    47   43   48 1   
    48   48   49 1   
    49   48   56 1   
    50   49   50 1   
    51   49   52 1   
    52   49   57 1   
    53   50   51 2   
    54   50   62 1   
    55   52   53 1   
    56   52   58 1   
    57   52   59 1   
    58   53   54 1   
    59   53   55 2   
    60   54   60 1   
    61   54   61 1   
    62   62   63 1   
    63   62   66 1   
    64   63   64 1   
    65   63   67 1   
    66   63   68 1   
    67   64   65 2   
    68   64   69 1   
    69   69   70 1   
    70   69   76 1   
    71   70   71 1   
    72   70   73 1   
    73   70   77 1   
    74   71   72 2   
    75   71   83 1   
    76   73   74 1   
    77   73   75 1   
    78   73   78 1   
    79   74   80 1   
    80   74   81 1   
    81   74   82 1   
    82   75   79 1   
    83   83   84 1   
    84   83   91 1   
    85   84   85 1   
    86   84   87 1   
    87   84   92 1   
    88   85   86 2   
    89   85  102 1   
    90   87   88 1   
    91   87   89 1   
    92   87   93 1   
    93   88   90 1   
    94   88   94 1   
    95   88   95 1   
    96   89   96 1   
    97   89   97 1   
    98   89   98 1   
    99   90   99 1   
   100   90  100 1   
   101   90  101 1   
   102  102  103 1   
   103  102  110 1   
   104  103  104 1   
   105  103  106 1   
   106  103  111 1   
   107  104  105 2   
   108  104  114 1   
   109  106  107 1   
   110  106  112 1   
   111  106  113 1   
   112  107  108 1   
   113  107  109 1   
   114  114  115 1   
   115  114  125 1   
   116  115  116 1   
   117  115  118 1   
   118  115  126 1   
   119  116  117 2   
   120  116  134 1   
   121  118  119 1   
   122  118  127 1   
   123  118  128 1   
   124  119  120 ar  
   125  119  121 ar  
   126  120  122 ar  
   127  120  129 1   
   128  121  123 ar  
   129  121  130 1   
   130  122  124 ar  
   131  122  131 1   
   132  123  124 ar  
   133  123  132 1   
   134  124  133 1   
   135  134  135 1   
   136  134  140 1   
   137  135  136 1   
   138  135  138 1   
   139  135  141 1   
   140  136  137 2   
   141  136  148 1   
   142  138  139 1   
   143  138  142 1   
   144  138  143 1   
   145  139  140 1   
   146  139  144 1   
   147  139  145 1   
   148  140  146 1   
   149  140  147 1   
   150  148  149 1   
   151  148  157 1   
   152  149  150 1   
   153  149  152 1   
   154  149  158 1   
   155  150  151 2   
   156  150  163 1   
   157  152  153 1   
   158  152  159 1   
   159  152  160 1   
   160  153  154 1   
   161  153  161 1   
   162  153  162 1   
   163  154  155 1   
   164  154  156 1   
   165  163  164 1   
   166  163  168 1   
   167  164  165 1   
   168  164  166 1   
   169  164  167 1   
   170  170  171 1   
   171  170  172 1   
@<TRIPOS>SUBSTRUCTURE
     1 MOL         1 TEMP              0 ****  ****    0 ROOT
