@<TRIPOS>MOLECULE
MOL
  175   173     1     0     0
SMALL
resp


@<TRIPOS>ATOM
      1 C1          0.7090    4.0170    5.2760 c3        1 MOL     -0.387681
      2 C2          0.0330    4.1880    3.9330 c         1 MOL      0.679863
      3 O1          0.6050    4.5200    2.8720 o         1 MOL     -0.545985
      4 H1         -0.0160    3.6500    6.0030 hc        1 MOL      0.099748
      5 H2          1.5240    3.3000    5.1830 hc        1 MOL      0.099748
      6 H3          1.1050    4.9760    5.6090 hc        1 MOL      0.099748
      7 N1         -1.3260    4.2000    3.8860 n         1 MOL     -0.613221
      8 C3         -1.9890    3.7100    2.6870 c3        1 MOL      0.317095
      9 C4         -2.1920    4.7560    1.5630 c         1 MOL      0.461598
     10 O2         -2.8340    5.8240    1.7590 o         1 MOL     -0.587674
     11 C5         -3.3620    3.1690    3.0960 c3        1 MOL     -0.580966
     12 C6         -4.1530    2.4740    1.9280 c         1 MOL      0.914804
     13 O3         -3.5640    2.2170    0.8550 o         1 MOL     -0.674889
     14 O4         -5.3280    2.1770    2.1190 o         1 MOL     -0.674889
     15 H4         -1.8230    4.2850    4.7610 hn        1 MOL      0.320953
     16 H5         -1.4250    2.8760    2.2820 h1        1 MOL      0.033972
     17 H6         -3.9010    4.0440    3.4710 hc        1 MOL      0.117103
     18 H7         -3.1340    2.4930    3.9220 hc        1 MOL      0.117103
     19 N2         -1.6930    4.4850    0.3690 n         1 MOL     -0.323971
     20 C7         -1.8360    5.3460   -0.7840 c3        1 MOL      0.322399
     21 C8         -3.1000    5.0140   -1.6620 c         1 MOL      0.481712
     22 O5         -3.3800    5.8480   -2.5260 o         1 MOL     -0.566054
     23 C9         -0.5180    5.3820   -1.5640 c3        1 MOL     -0.248928
     24 H8         -0.9470    3.8160    0.3350 hn        1 MOL      0.202374
     25 H9         -2.0110    6.3860   -0.5020 h1        1 MOL     -0.011225
     26 H10         0.1770    5.9770   -0.9750 hc        1 MOL      0.055326
     27 H11        -0.1450    4.3590   -1.6940 hc        1 MOL      0.055326
     28 H12        -0.7620    5.8510   -2.5070 hc        1 MOL      0.055326
     29 N3         -3.7740    3.8110   -1.4740 n         1 MOL     -0.517969
     30 C10        -4.8250    3.4610   -2.4870 c3        1 MOL      0.290702
     31 C11        -6.1090    2.7240   -1.8910 c         1 MOL      0.275513
     32 O6         -7.0610    2.6310   -2.6490 o         1 MOL     -0.538904
     33 C12        -4.2350    2.5340   -3.5780 c3        1 MOL     -0.283587
     34 C13        -3.3360    1.5030   -2.8390 c         1 MOL      0.706130
     35 O7         -2.1820    1.2820   -3.3050 o         1 MOL     -0.670254
     36 O8         -3.7750    0.8930   -1.8530 o         1 MOL     -0.670254
     37 H13        -3.4550    3.0990   -0.8470 hn        1 MOL      0.295633
     38 H14        -5.1790    4.3380   -3.0200 h1        1 MOL      0.043600
     39 H15        -3.6060    3.1240   -4.2580 hc        1 MOL      0.061134
     40 H16        -4.9780    1.9520   -4.1130 hc        1 MOL      0.061134
     41 N4         -6.0660    2.2150   -0.6450 n         1 MOL     -0.102215
     42 C14        -7.2390    1.3390   -0.3380 c3        1 MOL     -0.162816
     43 C15        -7.1610   -0.0800   -0.7640 c         1 MOL      0.514652
     44 O9         -8.1630   -0.7080   -0.5580 o         1 MOL     -0.637366
     45 H17        -5.1780    2.1110   -0.1710 hn        1 MOL     -0.033445
     46 H18        -8.2170    1.6690   -0.6780 h1        1 MOL      0.111930
     47 H19        -7.3140    1.4100    0.7480 h1        1 MOL      0.111930
     48 N5         -6.1370   -0.6420   -1.3900 n         1 MOL     -0.129674
     49 C16        -6.1680   -1.8590   -2.1470 c3        1 MOL     -0.151607
     50 C17        -6.1590   -3.1270   -1.2700 c         1 MOL      0.492140
     51 O10        -5.9900   -4.2690   -1.7680 o         1 MOL     -0.546425
     52 C18        -5.1090   -1.8450   -3.2170 c3        1 MOL     -0.079963
     53 C19        -3.6910   -1.9530   -2.6920 c         1 MOL      0.492979
     54 N6         -2.6510   -2.0820   -3.5120 n         1 MOL     -0.637226
     55 O11        -3.4590   -2.0200   -1.4890 o         1 MOL     -0.424189
     56 H20        -5.3120   -0.0820   -1.5400 hn        1 MOL      0.237407
     57 H21        -7.1810   -1.9360   -2.5300 h1        1 MOL      0.121515
     58 H22        -5.1460   -0.9820   -3.8850 hc        1 MOL      0.053667
     59 H23        -5.2350   -2.6350   -3.9680 hc        1 MOL      0.053667
     60 H24        -2.6930   -2.1160   -4.5230 hn        1 MOL      0.326212
     61 H25        -1.6940   -2.0010   -3.1860 hn        1 MOL      0.326212
     62 N7         -6.4910   -3.0590    0.0090 n         1 MOL     -0.316143
     63 C20        -6.4420   -4.2470    0.8840 c3        1 MOL     -0.121872
     64 C21        -5.0700   -4.5860    1.5530 c         1 MOL      0.367434
     65 O12        -5.0170   -5.4170    2.5130 o         1 MOL     -0.557119
     66 H26        -6.8580   -2.2110    0.4260 hn        1 MOL      0.263850
     67 H27        -6.8630   -5.0770    0.3150 h1        1 MOL      0.108937
     68 H28        -7.1980   -4.1260    1.6560 h1        1 MOL      0.108937
     69 N8         -3.9460   -3.9900    1.1120 n         1 MOL     -0.091479
     70 C22        -2.6150   -4.5180    1.3770 c3        1 MOL     -0.193178
     71 C23        -1.5380   -3.4090    1.4140 c         1 MOL      0.454751
     72 O13        -1.7950   -2.3460    0.8380 o         1 MOL     -0.520528
     73 C24        -2.3040   -5.4430    0.2020 c3        1 MOL      0.569854
     74 C25        -3.2270   -6.6740    0.0910 c3        1 MOL     -0.523653
     75 O14        -2.3210   -4.7130   -1.0180 oh        1 MOL     -0.609160
     76 H29        -4.0520   -3.2490    0.4360 hn        1 MOL      0.129220
     77 H30        -2.5440   -5.0690    2.3060 h1        1 MOL      0.089663
     78 H31        -1.2620   -5.6960    0.3720 h1        1 MOL     -0.084118
     79 H32        -2.1800   -3.7750   -0.8520 ho        1 MOL      0.336917
     80 H33        -3.1350   -7.2240    1.0320 hc        1 MOL      0.135302
     81 H34        -4.2820   -6.4350   -0.0390 hc        1 MOL      0.135302
     82 H35        -2.8640   -7.2720   -0.7400 hc        1 MOL      0.135302
     83 N9         -0.3980   -3.6560    2.0600 n         1 MOL     -0.284348
     84 C26         0.7430   -2.8700    2.0390 c3        1 MOL      0.002629
     85 C27         1.4550   -3.1030    0.7560 c         1 MOL      0.669100
     86 O15         1.8310   -4.2310    0.4930 o         1 MOL     -0.638023
     87 C28         1.6280   -3.0000    3.3320 c3        1 MOL      0.034185
     88 C29         1.0070   -2.4530    4.7330 c3        1 MOL      0.124340
     89 C30         2.9980   -2.3380    3.3280 c3        1 MOL     -0.265230
     90 C31         1.4700   -3.3370    5.9250 c3        1 MOL     -0.336572
     91 H36        -0.2340   -4.6120    2.3350 hn        1 MOL      0.224406
     92 H37         0.3820   -1.8440    2.0290 h1        1 MOL      0.028444
     93 H38         1.8060   -4.0670    3.4560 hc        1 MOL      0.027174
     94 H39        -0.0670   -2.6500    4.6550 hc        1 MOL     -0.010749
     95 H40         1.2460   -1.4080    4.9010 hc        1 MOL     -0.010749
     96 H41         2.8880   -1.2850    3.0820 hc        1 MOL      0.060122
     97 H42         3.4550   -2.4530    4.3080 hc        1 MOL      0.060122
     98 H43         3.5750   -2.7290    2.4960 hc        1 MOL      0.060122
     99 H44         1.2940   -4.4010    5.7960 hc        1 MOL      0.081521
    100 H45         2.5470   -3.1320    5.9320 hc        1 MOL      0.081521
    101 H46         1.0250   -2.9090    6.8200 hc        1 MOL      0.081521
    102 N10         1.7480   -2.0570    0.0620 n         1 MOL     -0.262190
    103 C32         2.5960   -1.9990   -1.1770 c3        1 MOL      0.157941
    104 C33         3.9780   -1.6260   -0.8650 c         1 MOL      0.242756
    105 O16         4.2200   -0.9780    0.1420 o         1 MOL     -0.162933
    106 C34         2.0080   -0.9950   -2.2010 c3        1 MOL     -0.362831
    107 C35         0.5130   -1.2370   -2.6070 c         1 MOL      0.777576
    108 O17        -0.3600   -0.9000   -1.7750 o         1 MOL     -0.673710
    109 O18         0.3020   -1.8020   -3.6980 o         1 MOL     -0.673710
    110 H47         1.3090   -1.1780    0.3070 hn        1 MOL      0.017970
    111 H48         2.6120   -2.9980   -1.6130 h1        1 MOL      0.055911
    112 H49         2.7240   -0.9640   -3.0300 hc        1 MOL      0.093573
    113 H50         2.0110   -0.0590   -1.6480 hc        1 MOL      0.093573
    114 N11         4.9670   -1.9870   -1.7230 n         1 MOL     -0.447851
    115 C36         6.3740   -1.5590   -1.3920 c3        1 MOL      0.228902
    116 C37         6.6490   -0.1370   -1.0670 c         1 MOL      0.382644
    117 O19         7.3230    0.0750   -0.0870 o         1 MOL     -0.487231
    118 C38         7.3370   -2.0130   -2.5280 c3        1 MOL     -0.106362
    119 C39         8.8270   -1.7490   -2.2350 ca        1 MOL      0.154264
    120 C40         9.3750   -2.3860   -1.1030 ca        1 MOL     -0.274336
    121 C41         9.5620   -0.8340   -3.0090 ca        1 MOL     -0.274336
    122 C42        10.6350   -2.1160   -0.6150 ca        1 MOL     -0.020873
    123 C43        10.8790   -0.5360   -2.5070 ca        1 MOL     -0.020873
    124 C44        11.4290   -1.1950   -1.3120 ca        1 MOL     -0.188206
    125 H51         4.8490   -2.7020   -2.4280 hn        1 MOL      0.298619
    126 H52         6.5270   -2.2180   -0.5360 h1        1 MOL      0.023758
    127 H53         7.0330   -1.3780   -3.3590 hc        1 MOL      0.030139
    128 H54         7.2230   -3.0760   -2.7610 hc        1 MOL      0.030139
    129 H55         8.8050   -3.1300   -0.5660 ha        1 MOL      0.150595
    130 H56         9.1600   -0.3190   -3.8730 ha        1 MOL      0.150595
    131 H57        10.9960   -2.5650    0.2890 ha        1 MOL      0.092821
    132 H58        11.6070    0.0190   -3.0620 ha        1 MOL      0.092821
    133 H59        12.4430   -1.0400   -0.9750 ha        1 MOL      0.117398
    134 N12         6.1870    0.8550   -1.8430 n         1 MOL     -0.055919
    135 C45         6.3930    2.2560   -1.4240 c3        1 MOL     -0.036379
    136 C46         5.7080    2.6560   -0.0800 c         1 MOL      0.301819
    137 O20         5.9840    3.7250    0.5150 o         1 MOL     -0.520200
    138 C47         5.8450    3.0140   -2.6160 c3        1 MOL     -0.176876
    139 C48         4.9410    2.1170   -3.3970 c3        1 MOL      0.017521
    140 C49         5.6150    0.8180   -3.2190 c3        1 MOL      0.022752
    141 H60         7.4670    2.4410   -1.3850 h1        1 MOL      0.080272
    142 H61         5.3180    3.9370   -2.3850 hc        1 MOL      0.076311
    143 H62         6.7280    3.2020   -3.2260 hc        1 MOL      0.076311
    144 H63         3.9070    2.0210   -3.0450 hc        1 MOL      0.030727
    145 H64         4.9540    2.4120   -4.4490 hc        1 MOL      0.030727
    146 H65         4.9290   -0.0280   -3.3530 h1        1 MOL      0.006184
    147 H66         6.4070    0.6910   -3.9560 h1        1 MOL      0.006184
    148 N13         4.7900    1.8690    0.3900 n         1 MOL     -0.029410
    149 C50         4.1340    2.0420    1.7050 c3        1 MOL      0.009333
    150 C51         4.9200    1.3420    2.7680 c         1 MOL      0.461609
    151 O21         5.2480    1.9600    3.7780 o         1 MOL     -0.577806
    152 C52         2.7250    1.5080    1.6340 c3        1 MOL     -0.082969
    153 C53         1.9490    1.9650    0.3890 c3        1 MOL     -0.136613
    154 C54         0.5010    1.3860    0.4290 c         1 MOL      0.602170
    155 O22        -0.4180    1.8800   -0.2810 o         1 MOL     -0.645731
    156 O23         0.2780    0.3960    1.1360 o         1 MOL     -0.645731
    157 H67         4.5560    0.9940   -0.0730 hn        1 MOL      0.094526
    158 H68         4.1040    3.0990    1.9730 h1        1 MOL      0.079514
    159 H69         2.1690    1.9220    2.4770 hc        1 MOL      0.044512
    160 H70         2.7010    0.4170    1.6760 hc        1 MOL      0.044512
    161 H71         2.4120    1.4730   -0.4690 hc        1 MOL      0.062180
    162 H72         1.9470    3.0450    0.2540 hc        1 MOL      0.062180
    163 N14         5.4360    0.2110    2.4610 n         1 MOL     -0.061867
    164 C55         6.3600   -0.5040    3.3910 c3        1 MOL     -0.271815
    165 H73         5.8010   -0.8540    4.2590 h1        1 MOL      0.102440
    166 H74         6.8050   -1.3560    2.8770 h1        1 MOL      0.102440
    167 H75         7.1470    0.1770    3.7160 h1        1 MOL      0.102440
    168 H76         5.1150   -0.2510    1.6120 hn        1 MOL      0.021807
    169 Ca1        -2.1890    0.0940   -0.0130 Ca        1 MOL      1.634128
    170 O24        -1.8120    0.3420    2.5750 oh        1 MOL     -0.785682
    171 H77        -1.8510    0.4030    3.5360 ho        1 MOL      0.371700
    172 H78        -0.8710    0.3190    2.3730 ho        1 MOL      0.371700
    173 O25        -4.5040   -0.5410    1.4050 oh        1 MOL     -0.785682
    174 H79        -5.2170   -0.9490    1.8900 ho        1 MOL      0.371700
    175 H80        -4.8190    0.3460    1.2290 ho        1 MOL      0.371700
@<TRIPOS>BOND
     1    1    2 1   
     2    1    4 1   
     3    1    5 1   
     4    1    6 1   
     5    2    3 2   
     6    2    7 1   
     7    7    8 1   
     8    7   15 1   
     9    8    9 1   
    10    8   11 1   
    11    8   16 1   
    12    9   10 2   
    13    9   19 1   
    14   11   12 1   
    15   11   17 1   
    16   11   18 1   
    17   12   13 1   
    18   12   14 1   
    19   19   20 1   
    20   19   24 1   
    21   20   21 1   
    22   20   23 1   
    23   20   25 1   
    24   21   22 2   
    25   21   29 1   
    26   23   26 1   
    27   23   27 1   
    28   23   28 1   
    29   29   30 1   
    30   29   37 1   
    31   30   31 1   
    32   30   33 1   
    33   30   38 1   
    34   31   32 2   
    35   31   41 1   
    36   33   34 1   
    37   33   39 1   
    38   33   40 1   
    39   34   35 1   
    40   34   36 1   
    41   41   42 1   
    42   41   45 1   
    43   42   43 1   
    44   42   46 1   
    45   42   47 1   
    46   43   44 2   
    47   43   48 1   
    48   48   49 1   
    49   48   56 1   
    50   49   50 1   
    51   49   52 1   
    52   49   57 1   
    53   50   51 2   
    54   50   62 1   
    55   52   53 1   
    56   52   58 1   
    57   52   59 1   
    58   53   54 1   
    59   53   55 2   
    60   54   60 1   
    61   54   61 1   
    62   62   63 1   
    63   62   66 1   
    64   63   64 1   
    65   63   67 1   
    66   63   68 1   
    67   64   65 2   
    68   64   69 1   
    69   69   70 1   
    70   69   76 1   
    71   70   71 1   
    72   70   73 1   
    73   70   77 1   
    74   71   72 2   
    75   71   83 1   
    76   73   74 1   
    77   73   75 1   
    78   73   78 1   
    79   74   80 1   
    80   74   81 1   
    81   74   82 1   
    82   75   79 1   
    83   83   84 1   
    84   83   91 1   
    85   84   85 1   
    86   84   87 1   
    87   84   92 1   
    88   85   86 2   
    89   85  102 1   
    90   87   88 1   
    91   87   89 1   
    92   87   93 1   
    93   88   90 1   
    94   88   94 1   
    95   88   95 1   
    96   89   96 1   
    97   89   97 1   
    98   89   98 1   
    99   90   99 1   
   100   90  100 1   
   101   90  101 1   
   102  102  103 1   
   103  102  110 1   
   104  103  104 1   
   105  103  106 1   
   106  103  111 1   
   107  104  105 2   
   108  104  114 1   
   109  106  107 1   
   110  106  112 1   
   111  106  113 1   
   112  107  108 1   
   113  107  109 1   
   114  114  115 1   
   115  114  125 1   
   116  115  116 1   
   117  115  118 1   
   118  115  126 1   
   119  116  117 2   
   120  116  134 1   
   121  118  119 1   
   122  118  127 1   
   123  118  128 1   
   124  119  120 ar  
   125  119  121 ar  
   126  120  122 ar  
   127  120  129 1   
   128  121  123 ar  
   129  121  130 1   
   130  122  124 ar  
   131  122  131 1   
   132  123  124 ar  
   133  123  132 1   
   134  124  133 1   
   135  134  135 1   
   136  134  140 1   
   137  135  136 1   
   138  135  138 1   
   139  135  141 1   
   140  136  137 2   
   141  136  148 1   
   142  138  139 1   
   143  138  142 1   
   144  138  143 1   
   145  139  140 1   
   146  139  144 1   
   147  139  145 1   
   148  140  146 1   
   149  140  147 1   
   150  148  149 1   
   151  148  157 1   
   152  149  150 1   
   153  149  152 1   
   154  149  158 1   
   155  150  151 2   
   156  150  163 1   
   157  152  153 1   
   158  152  159 1   
   159  152  160 1   
   160  153  154 1   
   161  153  161 1   
   162  153  162 1   
   163  154  155 1   
   164  154  156 1   
   165  163  164 1   
   166  163  168 1   
   167  164  165 1   
   168  164  166 1   
   169  164  167 1   
   170  170  171 1   
   171  170  172 1   
   172  173  174 1   
   173  173  175 1   
@<TRIPOS>SUBSTRUCTURE
     1 MOL         1 TEMP              0 ****  ****    0 ROOT
