@<TRIPOS>MOLECULE
MOL
  175   173     1     0     0
SMALL
resp


@<TRIPOS>ATOM
      1 C1          0.2050    4.3080    4.9930 c3        1 MOL     -0.351158
      2 C2         -0.5420    4.2680    3.6790 c         1 MOL      0.824146
      3 O1          0.0540    4.6580    2.7140 o         1 MOL     -0.584189
      4 H1          0.0960    3.3500    5.5020 hc        1 MOL      0.078730
      5 H2          1.2620    4.5000    4.8050 hc        1 MOL      0.078730
      6 H3         -0.2040    5.1010    5.6210 hc        1 MOL      0.078730
      7 N1         -1.8320    3.8160    3.6620 n         1 MOL     -0.750683
      8 C3         -2.6150    3.5680    2.4440 c3        1 MOL      0.169962
      9 C4         -2.9200    4.8020    1.6840 c         1 MOL      0.543771
     10 O2         -3.3680    5.8130    2.2190 o         1 MOL     -0.576027
     11 C5         -3.8780    2.8280    2.8740 c3        1 MOL     -0.126585
     12 C6         -4.5880    2.1670    1.6610 c         1 MOL      0.602954
     13 O3         -3.9650    1.6100    0.7020 o         1 MOL     -0.634346
     14 O4         -5.8210    2.2520    1.7570 o         1 MOL     -0.634346
     15 H4         -2.3170    3.5570    4.5120 hn        1 MOL      0.336093
     16 H5         -1.9900    2.9190    1.8310 h1        1 MOL      0.051833
     17 H6         -4.5900    3.4750    3.3710 hc        1 MOL      0.034970
     18 H7         -3.5890    2.0820    3.6200 hc        1 MOL      0.034970
     19 N2         -2.8400    4.7240    0.3620 n         1 MOL     -0.344192
     20 C7         -3.1320    5.6170   -0.6980 c3        1 MOL      0.170291
     21 C8         -3.8420    4.9500   -1.9390 c         1 MOL      0.468105
     22 O5         -3.9010    5.5670   -3.0170 o         1 MOL     -0.560572
     23 C9         -1.7670    6.1520   -1.1620 c3        1 MOL     -0.233188
     24 H8         -2.3330    3.8870    0.0940 hn        1 MOL      0.224821
     25 H9         -3.7030    6.4600   -0.3160 h1        1 MOL      0.043695
     26 H10        -1.1580    5.3280   -1.5190 hc        1 MOL      0.063908
     27 H11        -1.8120    7.0310   -1.8050 hc        1 MOL      0.063908
     28 H12        -1.2150    6.5880   -0.3280 hc        1 MOL      0.063908
     29 N3         -4.5180    3.8190   -1.7450 n         1 MOL     -0.346352
     30 C10        -5.2880    3.1140   -2.7750 c3        1 MOL      0.036366
     31 C11        -6.5400    2.2730   -2.3510 c         1 MOL      0.437399
     32 O6         -7.4450    2.0780   -3.1110 o         1 MOL     -0.532035
     33 C12        -4.2940    2.2850   -3.5910 c3        1 MOL      0.006705
     34 C13        -3.3190    1.3490   -2.8570 c         1 MOL      0.635119
     35 O7         -3.7730    0.6380   -1.9790 o         1 MOL     -0.680077
     36 O8         -2.1790    1.2260   -3.3940 o         1 MOL     -0.680077
     37 H13        -4.5280    3.5200   -0.7740 hn        1 MOL      0.165722
     38 H14        -5.6990    3.8110   -3.4960 h1        1 MOL      0.063673
     39 H15        -3.6320    2.9470   -4.1460 hc        1 MOL     -0.001875
     40 H16        -4.8510    1.7530   -4.3610 hc        1 MOL     -0.001875
     41 N4         -6.5370    1.7200   -1.0990 n         1 MOL     -0.318684
     42 C14        -7.5750    0.7550   -0.6110 c3        1 MOL     -0.132933
     43 C15        -7.4810   -0.6460   -1.0620 c         1 MOL      0.395357
     44 O9         -8.4310   -1.4970   -0.9600 o         1 MOL     -0.590337
     45 H17        -5.7530    1.9740   -0.5060 hn        1 MOL      0.249410
     46 H18        -8.5870    1.1290   -0.8020 h1        1 MOL      0.116313
     47 H19        -7.6430    0.7290    0.4730 h1        1 MOL      0.116313
     48 N5         -6.2950   -1.0760   -1.6390 n         1 MOL     -0.095174
     49 C16        -6.1410   -2.4210   -2.1090 c3        1 MOL     -0.080650
     50 C17        -6.0670   -3.5550   -1.0110 c         1 MOL      0.477188
     51 O10        -6.1200   -4.7240   -1.3910 o         1 MOL     -0.547157
     52 C18        -4.9440   -2.5890   -3.0630 c3        1 MOL     -0.193292
     53 C19        -3.6030   -2.4680   -2.3860 c         1 MOL      0.793855
     54 N6         -2.5770   -2.4480   -3.1220 n         1 MOL     -0.716546
     55 O11        -3.4470   -2.2530   -1.1790 o         1 MOL     -0.693830
     56 H20        -5.6150   -0.3790   -1.8900 hn        1 MOL      0.200555
     57 H21        -7.0350   -2.6040   -2.7120 h1        1 MOL      0.095633
     58 H22        -4.9300   -1.7690   -3.7800 hc        1 MOL      0.048739
     59 H23        -4.8870   -3.5390   -3.5920 hc        1 MOL      0.048739
     60 H24        -2.7230   -2.2860   -4.1070 hn        1 MOL      0.331399
     61 H25        -1.7090   -2.0360   -2.7940 hn        1 MOL      0.331399
     62 N7         -6.0320   -3.2190    0.2840 n         1 MOL     -0.166058
     63 C20        -5.9600   -4.1520    1.3880 c3        1 MOL     -0.352070
     64 C21        -4.6200   -4.7650    1.7490 c         1 MOL      0.683612
     65 O12        -4.5720   -5.5670    2.6800 o         1 MOL     -0.606920
     66 H26        -6.0410   -2.2440    0.5540 hn        1 MOL      0.256527
     67 H27        -6.6440   -4.9740    1.1660 h1        1 MOL      0.124468
     68 H28        -6.4090   -3.5380    2.1760 h1        1 MOL      0.124468
     69 N8         -3.5130   -4.3350    1.0970 n         1 MOL     -0.368655
     70 C22        -2.1170   -4.7360    1.4920 c3        1 MOL     -0.044903
     71 C23        -1.2230   -3.5520    1.6350 c         1 MOL      0.575567
     72 O13        -1.3770   -2.5020    0.9680 o         1 MOL     -0.614970
     73 C24        -1.4020   -5.6320    0.4420 c3        1 MOL      0.430886
     74 C25        -1.9410   -7.1040    0.5240 c3        1 MOL     -0.458321
     75 O14        -1.5480   -5.0380   -0.8490 oh        1 MOL     -0.565921
     76 H29        -3.6160   -3.6670    0.3480 hn        1 MOL      0.259157
     77 H30        -2.0390   -5.2340    2.4640 h1        1 MOL      0.076002
     78 H31        -0.3470   -5.6340    0.7170 h1        1 MOL     -0.022776
     79 H32        -0.8000   -5.3080   -1.3920 ho        1 MOL      0.377997
     80 H33        -1.3400   -7.7600   -0.1020 hc        1 MOL      0.108041
     81 H34        -1.8020   -7.4770    1.5410 hc        1 MOL      0.108041
     82 H35        -2.9660   -7.2240    0.1890 hc        1 MOL      0.108041
     83 N9         -0.1350   -3.6180    2.4900 n         1 MOL     -0.584335
     84 C26         0.9910   -2.6710    2.3610 c3        1 MOL      0.191592
     85 C27         1.7120   -2.9670    1.0190 c         1 MOL      0.512845
     86 O15         2.0330   -4.1500    0.7750 o         1 MOL     -0.598498
     87 C28         1.8400   -2.5820    3.6430 c3        1 MOL      0.071178
     88 C29         1.2960   -1.4970    4.5730 c3        1 MOL      0.193230
     89 C30         3.3220   -2.1970    3.4230 c3        1 MOL     -0.315854
     90 C31         1.7120   -1.6150    5.9920 c3        1 MOL     -0.108568
     91 H36        -0.0230   -4.5080    2.9690 hn        1 MOL      0.286708
     92 H37         0.6490   -1.6450    2.2410 h1        1 MOL      0.004469
     93 H38         1.7690   -3.5280    4.1700 hc        1 MOL      0.005735
     94 H39         0.2260   -1.6640    4.6890 hc        1 MOL     -0.046247
     95 H40         1.4930   -0.5170    4.1330 hc        1 MOL     -0.046247
     96 H41         3.9280   -2.4340    4.2980 hc        1 MOL      0.055126
     97 H42         3.7220   -2.6050    2.4950 hc        1 MOL      0.055126
     98 H43         3.4350   -1.1270    3.2240 hc        1 MOL      0.055126
     99 H44         2.7700   -1.8730    6.0130 hc        1 MOL      0.012758
    100 H45         1.5100   -0.7090    6.5660 hc        1 MOL      0.012758
    101 H46         1.1940   -2.4040    6.5250 hc        1 MOL      0.012758
    102 N10         2.0430   -1.8950    0.3060 n         1 MOL     -0.035876
    103 C32         2.8390   -1.9120   -0.9080 c3        1 MOL      0.007447
    104 C33         4.2970   -1.4640   -0.6280 c         1 MOL      0.386640
    105 O16         4.5810   -0.7330    0.3420 o         1 MOL     -0.290581
    106 C34         2.0480   -1.1050   -1.9530 c3        1 MOL     -0.286817
    107 C35         0.6320   -1.5290   -2.2170 c         1 MOL      0.753218
    108 O17        -0.3210   -1.0470   -1.5620 o         1 MOL     -0.668418
    109 O18         0.4770   -2.2290   -3.2440 o         1 MOL     -0.668418
    110 H47         1.5240   -1.0520    0.5010 hn        1 MOL      0.006000
    111 H48         2.8860   -2.9420   -1.2450 h1        1 MOL      0.045320
    112 H49         2.6400   -1.1920   -2.8570 hc        1 MOL      0.077159
    113 H50         2.0320   -0.0640   -1.6470 hc        1 MOL      0.077159
    114 N11         5.3220   -1.7720   -1.4580 n         1 MOL     -0.516791
    115 C36         6.7980   -1.2670   -1.3210 c3        1 MOL      0.178624
    116 C37         6.9820    0.2460   -1.0820 c         1 MOL      0.478614
    117 O19         7.5710    0.6450   -0.1230 o         1 MOL     -0.509500
    118 C38         7.7910   -1.6460   -2.4690 c3        1 MOL     -0.209136
    119 C39         9.2730   -1.6070   -2.0190 ca        1 MOL      0.101050
    120 C40         9.9230   -2.8330   -1.5910 ca        1 MOL     -0.188377
    121 C41        10.0450   -0.4510   -2.1890 ca        1 MOL     -0.188377
    122 C42        11.2450   -2.7820   -1.2390 ca        1 MOL     -0.053768
    123 C43        11.4210   -0.5020   -2.0450 ca        1 MOL     -0.053768
    124 C44        12.0350   -1.6340   -1.5160 ca        1 MOL     -0.164477
    125 H51         5.0460   -2.3190   -2.2590 hn        1 MOL      0.318576
    126 H52         7.1070   -1.7170   -0.3720 h1        1 MOL      0.059856
    127 H53         7.6640   -0.9820   -3.3260 hc        1 MOL      0.073645
    128 H54         7.4270   -2.6120   -2.7940 hc        1 MOL      0.073645
    129 H55         9.3320   -3.7170   -1.3930 ha        1 MOL      0.126945
    130 H56         9.5570    0.5050   -2.3520 ha        1 MOL      0.126945
    131 H57        11.6740   -3.6920   -0.8400 ha        1 MOL      0.096583
    132 H58        11.9750    0.3820   -2.3160 ha        1 MOL      0.096583
    133 H59        13.1180   -1.6270   -1.4670 ha        1 MOL      0.108219
    134 N12         6.4560    1.1890   -1.8940 n         1 MOL     -0.097409
    135 C45         6.4860    2.6060   -1.6200 c3        1 MOL     -0.072153
    136 C46         5.6940    2.9940   -0.3720 c         1 MOL      0.413360
    137 O20         6.0350    4.0280    0.2500 o         1 MOL     -0.524128
    138 C47         5.9590    3.3750   -2.9450 c3        1 MOL     -0.217003
    139 C48         5.0170    2.3390   -3.4900 c3        1 MOL      0.019950
    140 C49         5.7330    1.0210   -3.2380 c3        1 MOL     -0.037099
    141 H60         7.4950    2.9210   -1.3710 h1        1 MOL      0.090260
    142 H61         5.5880    4.3400   -2.6030 hc        1 MOL      0.097981
    143 H62         6.8230    3.4960   -3.5960 hc        1 MOL      0.097981
    144 H63         4.0590    2.2440   -2.9900 hc        1 MOL      0.035463
    145 H64         4.8620    2.4870   -4.5590 hc        1 MOL      0.035463
    146 H65         5.0700    0.1510   -3.2390 h1        1 MOL      0.031952
    147 H66         6.4500    0.8470   -4.0270 h1        1 MOL      0.031952
    148 N13         4.7690    2.1740    0.1440 n         1 MOL     -0.090542
    149 C50         4.0440    2.4240    1.3360 c3        1 MOL     -0.237459
    150 C51         4.8860    2.0210    2.5240 c         1 MOL      0.446969
    151 O21         4.9930    2.6860    3.5510 o         1 MOL     -0.550863
    152 C52         2.6230    1.8620    1.3780 c3        1 MOL      0.032782
    153 C53         1.6200    2.3660    0.2760 c3        1 MOL     -0.214191
    154 C54         0.2910    1.5940    0.4590 c         1 MOL      0.750543
    155 O22        -0.7100    1.9150   -0.1690 o         1 MOL     -0.734195
    156 O23         0.1390    0.5950    1.2290 o         1 MOL     -0.734195
    157 H67         4.6580    1.2310   -0.1990 hn        1 MOL      0.129179
    158 H68         3.8700    3.5000    1.2930 h1        1 MOL      0.142473
    159 H69         2.2170    2.0190    2.3770 hc        1 MOL      0.059719
    160 H70         2.7730    0.7800    1.4230 hc        1 MOL      0.059719
    161 H71         1.9960    2.0460   -0.6940 hc        1 MOL      0.086643
    162 H72         1.4730    3.4390    0.3850 hc        1 MOL      0.086643
    163 N14         5.6930    0.9530    2.3020 n         1 MOL     -0.029182
    164 C55         6.7150    0.4440    3.3120 c3        1 MOL     -0.163293
    165 H73         6.3710   -0.5010    3.7320 h1        1 MOL      0.073037
    166 H74         7.6730    0.2930    2.8140 h1        1 MOL      0.073037
    167 H75         6.8320    1.1760    4.1120 h1        1 MOL      0.073037
    168 H76         5.5240    0.5050    1.4150 hn        1 MOL     -0.000769
    169 Ca1        -2.2650   -0.2550   -0.0770 Ca        1 MOL      1.732014
    170 O24        -1.9390    0.0630    2.5780 oh        1 MOL     -0.852795
    171 H77        -1.8680    0.3180    3.4990 ho        1 MOL      0.392723
    172 H78        -1.0930    0.2850    2.2080 ho        1 MOL      0.392723
    173 O25        -5.0640   -0.7280    0.8700 oh        1 MOL     -0.852795
    174 H79        -5.4170   -0.8260    1.7510 ho        1 MOL      0.392723
    175 H80        -4.8310    0.1990    0.8120 ho        1 MOL      0.392723
@<TRIPOS>BOND
     1    1    2 1   
     2    1    4 1   
     3    1    5 1   
     4    1    6 1   
     5    2    3 2   
     6    2    7 1   
     7    7    8 1   
     8    7   15 1   
     9    8    9 1   
    10    8   11 1   
    11    8   16 1   
    12    9   10 2   
    13    9   19 1   
    14   11   12 1   
    15   11   17 1   
    16   11   18 1   
    17   12   13 1   
    18   12   14 1   
    19   19   20 1   
    20   19   24 1   
    21   20   21 1   
    22   20   23 1   
    23   20   25 1   
    24   21   22 2   
    25   21   29 1   
    26   23   26 1   
    27   23   27 1   
    28   23   28 1   
    29   29   30 1   
    30   29   37 1   
    31   30   31 1   
    32   30   33 1   
    33   30   38 1   
    34   31   32 2   
    35   31   41 1   
    36   33   34 1   
    37   33   39 1   
    38   33   40 1   
    39   34   35 1   
    40   34   36 1   
    41   41   42 1   
    42   41   45 1   
    43   42   43 1   
    44   42   46 1   
    45   42   47 1   
    46   43   44 2   
    47   43   48 1   
    48   48   49 1   
    49   48   56 1   
    50   49   50 1   
    51   49   52 1   
    52   49   57 1   
    53   50   51 2   
    54   50   62 1   
    55   52   53 1   
    56   52   58 1   
    57   52   59 1   
    58   53   54 1   
    59   53   55 2   
    60   54   60 1   
    61   54   61 1   
    62   62   63 1   
    63   62   66 1   
    64   63   64 1   
    65   63   67 1   
    66   63   68 1   
    67   64   65 2   
    68   64   69 1   
    69   69   70 1   
    70   69   76 1   
    71   70   71 1   
    72   70   73 1   
    73   70   77 1   
    74   71   72 2   
    75   71   83 1   
    76   73   74 1   
    77   73   75 1   
    78   73   78 1   
    79   74   80 1   
    80   74   81 1   
    81   74   82 1   
    82   75   79 1   
    83   83   84 1   
    84   83   91 1   
    85   84   85 1   
    86   84   87 1   
    87   84   92 1   
    88   85   86 2   
    89   85  102 1   
    90   87   88 1   
    91   87   89 1   
    92   87   93 1   
    93   88   90 1   
    94   88   94 1   
    95   88   95 1   
    96   89   96 1   
    97   89   97 1   
    98   89   98 1   
    99   90   99 1   
   100   90  100 1   
   101   90  101 1   
   102  102  103 1   
   103  102  110 1   
   104  103  104 1   
   105  103  106 1   
   106  103  111 1   
   107  104  105 2   
   108  104  114 1   
   109  106  107 1   
   110  106  112 1   
   111  106  113 1   
   112  107  108 1   
   113  107  109 1   
   114  114  115 1   
   115  114  125 1   
   116  115  116 1   
   117  115  118 1   
   118  115  126 1   
   119  116  117 2   
   120  116  134 1   
   121  118  119 1   
   122  118  127 1   
   123  118  128 1   
   124  119  120 ar  
   125  119  121 ar  
   126  120  122 ar  
   127  120  129 1   
   128  121  123 ar  
   129  121  130 1   
   130  122  124 ar  
   131  122  131 1   
   132  123  124 ar  
   133  123  132 1   
   134  124  133 1   
   135  134  135 1   
   136  134  140 1   
   137  135  136 1   
   138  135  138 1   
   139  135  141 1   
   140  136  137 2   
   141  136  148 1   
   142  138  139 1   
   143  138  142 1   
   144  138  143 1   
   145  139  140 1   
   146  139  144 1   
   147  139  145 1   
   148  140  146 1   
   149  140  147 1   
   150  148  149 1   
   151  148  157 1   
   152  149  150 1   
   153  149  152 1   
   154  149  158 1   
   155  150  151 2   
   156  150  163 1   
   157  152  153 1   
   158  152  159 1   
   159  152  160 1   
   160  153  154 1   
   161  153  161 1   
   162  153  162 1   
   163  154  155 1   
   164  154  156 1   
   165  163  164 1   
   166  163  168 1   
   167  164  165 1   
   168  164  166 1   
   169  164  167 1   
   170  170  171 1   
   171  170  172 1   
   172  173  174 1   
   173  173  175 1   
@<TRIPOS>SUBSTRUCTURE
     1 MOL         1 TEMP              0 ****  ****    0 ROOT
