@<TRIPOS>MOLECULE
MOL
  175   173     1     0     0
SMALL
resp


@<TRIPOS>ATOM
      1 C1         -1.3740    3.1120    6.1430 c3        1 MOL     -0.326539
      2 C2         -1.4530    2.7770    4.6550 c         1 MOL      0.838913
      3 O1         -0.5910    3.1900    3.9630 o         1 MOL     -0.594431
      4 H1         -1.1830    2.2020    6.7110 hc        1 MOL      0.064160
      5 H2         -0.5640    3.8220    6.3140 hc        1 MOL      0.064160
      6 H3         -2.3170    3.5530    6.4680 hc        1 MOL      0.064160
      7 N1         -2.5480    2.1330    4.2250 n         1 MOL     -0.800757
      8 C3         -2.8280    1.9410    2.8290 c3        1 MOL      0.383224
      9 C4         -3.1540    3.2720    2.1500 c         1 MOL      0.578054
     10 O2         -4.0170    3.9560    2.6840 o         1 MOL     -0.605852
     11 C5         -4.0330    0.9490    2.6690 c3        1 MOL     -0.193344
     12 C6         -4.5040    1.0450    1.2100 c         1 MOL      0.450700
     13 O3         -5.7550    1.1750    1.0100 o         1 MOL     -0.549990
     14 O4         -3.7040    0.8600    0.3150 o         1 MOL     -0.549990
     15 H4         -3.2640    1.8740    4.8730 hn        1 MOL      0.359485
     16 H5         -2.0160    1.4030    2.3390 h1        1 MOL     -0.122289
     17 H6         -4.7540    1.1740    3.4530 hc        1 MOL      0.053044
     18 H7         -3.6120   -0.0030    2.9890 hc        1 MOL      0.053044
     19 N2         -2.5940    3.5220    0.9880 n         1 MOL     -0.422331
     20 C7         -2.6060    4.7780    0.2840 c3        1 MOL      0.188681
     21 C8         -3.4560    4.7460   -1.0130 c         1 MOL      0.360862
     22 O5         -3.6270    5.7480   -1.7160 o         1 MOL     -0.561980
     23 C9         -1.2360    4.9530   -0.2360 c3        1 MOL     -0.228014
     24 H8         -2.0100    2.7700    0.6740 hn        1 MOL      0.256411
     25 H9         -2.9730    5.6640    0.7970 h1        1 MOL      0.053158
     26 H10        -0.8700    4.2100   -0.9340 hc        1 MOL      0.076089
     27 H11        -1.0480    6.0010   -0.5070 hc        1 MOL      0.076089
     28 H12        -0.6110    4.7970    0.6480 hc        1 MOL      0.076089
     29 N3         -3.9960    3.6170   -1.4470 n         1 MOL     -0.267115
     30 C10        -4.7610    3.5720   -2.7510 c3        1 MOL      0.090735
     31 C11        -6.0990    2.8200   -2.6690 c         1 MOL      0.420224
     32 O6         -6.7360    2.5350   -3.7070 o         1 MOL     -0.517891
     33 C12        -3.9130    2.9320   -3.8110 c3        1 MOL     -0.056663
     34 C13        -3.1730    1.6920   -3.3840 c         1 MOL      0.741479
     35 O7         -1.9520    1.7990   -3.0440 o         1 MOL     -0.779105
     36 O8         -3.7190    0.6250   -3.0910 o         1 MOL     -0.779105
     37 H13        -3.8510    2.7720   -0.9080 hn        1 MOL      0.218407
     38 H14        -5.0000    4.5780   -3.0810 h1        1 MOL      0.091519
     39 H15        -3.2000    3.6710   -4.2030 hc        1 MOL     -0.000506
     40 H16        -4.5960    2.6870   -4.6240 hc        1 MOL     -0.000506
     41 N4         -6.5680    2.5000   -1.4230 n         1 MOL     -0.386675
     42 C14        -7.9310    1.9690   -1.3320 c3        1 MOL     -0.084319
     43 C15        -7.9240    0.4610   -1.6450 c         1 MOL      0.489352
     44 O9         -9.0090   -0.1060   -1.7270 o         1 MOL     -0.586406
     45 H17        -5.9220    2.3610   -0.6660 hn        1 MOL      0.219620
     46 H18        -8.5980    2.5170   -1.9950 h1        1 MOL      0.102803
     47 H19        -8.3090    2.0890   -0.3210 h1        1 MOL      0.102803
     48 N5         -6.7790   -0.2830   -1.7120 n         1 MOL     -0.239712
     49 C16        -6.7480   -1.7710   -1.7000 c3        1 MOL     -0.012035
     50 C17        -6.6010   -2.3850   -0.2790 c         1 MOL      0.456946
     51 O10        -6.7990   -3.6090   -0.0940 o         1 MOL     -0.613246
     52 C18        -5.8470   -2.3450   -2.8020 c3        1 MOL     -0.238561
     53 C19        -4.3510   -2.3880   -2.4140 c         1 MOL      0.548979
     54 N6         -3.5700   -3.0030   -3.2050 n         1 MOL     -0.754272
     55 O11        -3.9240   -1.9480   -1.3590 o         1 MOL     -0.290705
     56 H20        -5.9280    0.2500   -1.7690 hn        1 MOL      0.213759
     57 H21        -7.7660   -2.0770   -1.9230 h1        1 MOL      0.111490
     58 H22        -5.9400   -1.6300   -3.6200 hc        1 MOL      0.091401
     59 H23        -6.2000   -3.3110   -3.1830 hc        1 MOL      0.091401
     60 H24        -3.8110   -3.1770   -4.1710 hn        1 MOL      0.365113
     61 H25        -2.7060   -3.3360   -2.7960 hn        1 MOL      0.365113
     62 N7         -6.3330   -1.6460    0.7350 n         1 MOL     -0.060671
     63 C20        -6.3100   -2.0970    2.1440 c3        1 MOL     -0.204036
     64 C21        -4.9830   -2.8590    2.4610 c         1 MOL      0.487674
     65 O12        -4.8570   -3.2560    3.6100 o         1 MOL     -0.589937
     66 H26        -6.0110   -0.6940    0.6320 hn        1 MOL      0.070915
     67 H27        -7.0010   -2.9110    2.3630 h1        1 MOL      0.119288
     68 H28        -6.5950   -1.3180    2.8510 h1        1 MOL      0.119288
     69 N8         -4.0870   -3.0090    1.5350 n         1 MOL     -0.057930
     70 C22        -2.7500   -3.5940    1.7370 c3        1 MOL      0.069943
     71 C23        -1.7410   -2.5360    1.5440 c         1 MOL      0.159715
     72 O13        -1.9590   -1.4560    0.9870 o         1 MOL     -0.220398
     73 C24        -2.4000   -4.9500    1.0050 c3        1 MOL      0.459564
     74 C25        -3.2750   -6.1020    1.5680 c3        1 MOL     -0.369175
     75 O14        -2.5250   -4.7730   -0.3820 oh        1 MOL     -0.685046
     76 H29        -4.4370   -2.6500    0.6580 hn        1 MOL     -0.073980
     77 H30        -2.7640   -3.8180    2.8060 h1        1 MOL      0.030390
     78 H31        -1.3950   -5.2260    1.3190 h1        1 MOL      0.025201
     79 H32        -3.4540   -4.7120   -0.6020 ho        1 MOL      0.415408
     80 H33        -4.2970   -5.7130    1.6240 hc        1 MOL      0.083783
     81 H34        -3.3040   -6.9740    0.9150 hc        1 MOL      0.083783
     82 H35        -2.8920   -6.2240    2.5770 hc        1 MOL      0.083783
     83 N9         -0.4880   -2.8870    1.9460 n         1 MOL     -0.115573
     84 C26         0.6820   -1.9980    1.7990 c3        1 MOL     -0.390983
     85 C27         1.8420   -2.7270    1.1140 c         1 MOL      0.449241
     86 O15         2.3640   -3.7550    1.5710 o         1 MOL     -0.563983
     87 C28         1.1680   -1.4020    3.1340 c3        1 MOL      0.166718
     88 C29         1.6590   -2.3120    4.2140 c3        1 MOL     -0.005184
     89 C30         0.1180   -0.5000    3.6470 c3        1 MOL     -0.599236
     90 C31         2.0780   -1.7390    5.5050 c3        1 MOL     -0.131404
     91 H36        -0.3680   -3.7560    2.4430 hn        1 MOL      0.215659
     92 H37         0.4440   -1.1630    1.1410 h1        1 MOL     -0.039906
     93 H38         2.0700   -0.8290    2.9240 hc        1 MOL      0.027457
     94 H39         2.5350   -2.8250    3.8270 hc        1 MOL      0.032125
     95 H40         0.8940   -3.0510    4.4790 hc        1 MOL      0.032125
     96 H41        -0.0580    0.2620    2.8770 hc        1 MOL      0.182830
     97 H42        -0.7890   -0.9540    4.0220 hc        1 MOL      0.182830
     98 H43         0.4760    0.1180    4.4770 hc        1 MOL      0.182830
     99 H44         1.1750   -1.5570    6.0860 hc        1 MOL      0.020350
    100 H45         2.7160   -2.4500    6.0360 hc        1 MOL      0.020350
    101 H46         2.4950   -0.7410    5.3240 hc        1 MOL      0.020350
    102 N10         2.2480   -2.1750   -0.0390 n         1 MOL     -0.116853
    103 C32         3.4690   -2.6450   -0.7150 c3        1 MOL     -0.037259
    104 C33         4.7480   -1.7780   -0.3690 c         1 MOL      0.370860
    105 O16         4.6510   -0.9020    0.4550 o         1 MOL     -0.224089
    106 C34         3.3350   -2.5110   -2.2660 c3        1 MOL     -0.249497
    107 C35         2.1010   -2.8520   -3.0690 c         1 MOL      0.740668
    108 O17         1.3690   -3.7890   -2.6280 o         1 MOL     -0.705401
    109 O18         1.7060   -2.1640   -4.0790 o         1 MOL     -0.705401
    110 H47         1.8800   -1.2650   -0.2710 hn        1 MOL      0.368934
    111 H48         3.6820   -3.6660   -0.3910 h1        1 MOL      0.103360
    112 H49         4.1540   -3.0440   -2.7510 hc        1 MOL      0.039255
    113 H50         3.5230   -1.4730   -2.5260 hc        1 MOL      0.039255
    114 N11         5.9740   -2.0470   -0.9950 n         1 MOL     -0.591955
    115 C36         7.2560   -1.3220   -0.7110 c3        1 MOL      0.303883
    116 C37         7.2480    0.1710   -0.4600 c         1 MOL      0.464862
    117 O19         7.8580    0.6150    0.4730 o         1 MOL     -0.534779
    118 C38         8.2840   -1.6750   -1.8750 c3        1 MOL     -0.167617
    119 C39         9.6710   -1.0650   -1.6810 ca        1 MOL      0.170086
    120 C40        10.5030   -1.4110   -0.6530 ca        1 MOL     -0.250040
    121 C41        10.0330   -0.0480   -2.5460 ca        1 MOL     -0.250040
    122 C42        11.6630   -0.7170   -0.3660 ca        1 MOL     -0.036548
    123 C43        11.2960    0.6190   -2.3160 ca        1 MOL     -0.036548
    124 C44        12.1050    0.3220   -1.2260 ca        1 MOL     -0.163863
    125 H51         6.0330   -2.9580   -1.4310 hn        1 MOL      0.314718
    126 H52         7.6660   -1.7300    0.2110 h1        1 MOL      0.007548
    127 H53         7.8390   -1.2720   -2.7830 hc        1 MOL      0.048368
    128 H54         8.4450   -2.7540   -1.9220 hc        1 MOL      0.048368
    129 H55        10.1950   -2.2130   -0.0020 ha        1 MOL      0.133021
    130 H56         9.4320    0.1110   -3.4270 ha        1 MOL      0.133021
    131 H57        12.2740   -1.0220    0.4680 ha        1 MOL      0.090900
    132 H58        11.6000    1.3570   -3.0360 ha        1 MOL      0.090900
    133 H59        13.0200    0.8730   -1.1100 ha        1 MOL      0.113689
    134 N12         6.5380    0.9900   -1.2610 n         1 MOL      0.003410
    135 C45         6.6040    2.4020   -1.0320 c3        1 MOL     -0.006455
    136 C46         5.6770    2.8180    0.1070 c         1 MOL      0.313372
    137 O20         5.9230    3.8380    0.7240 o         1 MOL     -0.502955
    138 C47         6.2170    2.9970   -2.3570 c3        1 MOL     -0.095809
    139 C48         5.4650    1.9810   -3.1490 c3        1 MOL      0.029998
    140 C49         6.1420    0.7580   -2.6520 c3        1 MOL     -0.248096
    141 H60         7.6480    2.6670   -0.8450 h1        1 MOL      0.069705
    142 H61         5.7300    3.9770   -2.2530 hc        1 MOL      0.043515
    143 H62         7.1520    3.1730   -2.8890 hc        1 MOL      0.043515
    144 H63         4.4110    2.0190   -2.8690 hc        1 MOL      0.040331
    145 H64         5.4350    2.1200   -4.2310 hc        1 MOL      0.040331
    146 H65         5.5300   -0.1410   -2.6780 h1        1 MOL      0.078330
    147 H66         7.0600    0.5810   -3.2000 h1        1 MOL      0.078330
    148 N13         4.6290    2.0350    0.4140 n         1 MOL     -0.084685
    149 C50         3.8600    2.3050    1.6000 c3        1 MOL     -0.256975
    150 C51         4.3300    1.7100    2.9290 c         1 MOL      0.511632
    151 O21         4.0730    2.2290    4.0020 o         1 MOL     -0.549669
    152 C52         2.4370    1.7440    1.3060 c3        1 MOL      0.261233
    153 C53         1.7720    2.2000    0.0510 c3        1 MOL     -0.131169
    154 C54         0.6150    1.2370   -0.3470 c         1 MOL      0.759387
    155 O22         0.8710    0.1770   -0.9860 o         1 MOL     -0.714751
    156 O23        -0.5420    1.5450   -0.0170 o         1 MOL     -0.714751
    157 H67         4.4960    1.1820   -0.1120 hn        1 MOL      0.199969
    158 H68         3.7330    3.3770    1.7860 h1        1 MOL      0.132845
    159 H69         1.7790    1.9700    2.1410 hc        1 MOL     -0.015887
    160 H70         2.5340    0.6700    1.1830 hc        1 MOL     -0.015887
    161 H71         2.4870    2.0700   -0.7600 hc        1 MOL     -0.020905
    162 H72         1.3430    3.1890    0.2050 hc        1 MOL     -0.020905
    163 N14         5.1710    0.6410    2.7990 n         1 MOL      0.001999
    164 C55         6.1000    0.0850    3.7440 c3        1 MOL     -0.310791
    165 H73         6.6710   -0.7120    3.2670 h1        1 MOL      0.104106
    166 H74         6.7810    0.8640    4.0870 h1        1 MOL      0.104106
    167 H75         5.5530   -0.3210    4.5960 h1        1 MOL      0.104106
    168 H76         5.0470    0.1840    1.8970 hn        1 MOL     -0.051543
    169 Ca1        -1.8480   -0.3050   -1.3480 Ca        1 MOL      1.649822
    170 O24        -0.7010   -1.1580   -3.8710 oh        1 MOL     -0.890980
    171 H77        -0.8820   -0.7450   -4.7200 ho        1 MOL      0.413015
    172 H78         0.1860   -1.4890   -3.9580 ho        1 MOL      0.413015
    173 O25        -0.8710   -2.7630   -1.2930 oh        1 MOL     -0.890980
    174 H79        -0.0610   -3.0910   -1.6770 ho        1 MOL      0.413015
    175 H80        -1.3550   -3.5470   -1.0360 ho        1 MOL      0.413015
@<TRIPOS>BOND
     1    1    2 1   
     2    1    4 1   
     3    1    5 1   
     4    1    6 1   
     5    2    3 2   
     6    2    7 1   
     7    7    8 1   
     8    7   15 1   
     9    8    9 1   
    10    8   11 1   
    11    8   16 1   
    12    9   10 2   
    13    9   19 1   
    14   11   12 1   
    15   11   17 1   
    16   11   18 1   
    17   12   13 1   
    18   12   14 1   
    19   19   20 1   
    20   19   24 1   
    21   20   21 1   
    22   20   23 1   
    23   20   25 1   
    24   21   22 2   
    25   21   29 1   
    26   23   26 1   
    27   23   27 1   
    28   23   28 1   
    29   29   30 1   
    30   29   37 1   
    31   30   31 1   
    32   30   33 1   
    33   30   38 1   
    34   31   32 2   
    35   31   41 1   
    36   33   34 1   
    37   33   39 1   
    38   33   40 1   
    39   34   35 1   
    40   34   36 1   
    41   41   42 1   
    42   41   45 1   
    43   42   43 1   
    44   42   46 1   
    45   42   47 1   
    46   43   44 2   
    47   43   48 1   
    48   48   49 1   
    49   48   56 1   
    50   49   50 1   
    51   49   52 1   
    52   49   57 1   
    53   50   51 2   
    54   50   62 1   
    55   52   53 1   
    56   52   58 1   
    57   52   59 1   
    58   53   54 1   
    59   53   55 2   
    60   54   60 1   
    61   54   61 1   
    62   62   63 1   
    63   62   66 1   
    64   63   64 1   
    65   63   67 1   
    66   63   68 1   
    67   64   65 2   
    68   64   69 1   
    69   69   70 1   
    70   69   76 1   
    71   70   71 1   
    72   70   73 1   
    73   70   77 1   
    74   71   72 2   
    75   71   83 1   
    76   73   74 1   
    77   73   75 1   
    78   73   78 1   
    79   74   80 1   
    80   74   81 1   
    81   74   82 1   
    82   75   79 1   
    83   83   84 1   
    84   83   91 1   
    85   84   85 1   
    86   84   87 1   
    87   84   92 1   
    88   85   86 2   
    89   85  102 1   
    90   87   88 1   
    91   87   89 1   
    92   87   93 1   
    93   88   90 1   
    94   88   94 1   
    95   88   95 1   
    96   89   96 1   
    97   89   97 1   
    98   89   98 1   
    99   90   99 1   
   100   90  100 1   
   101   90  101 1   
   102  102  103 1   
   103  102  110 1   
   104  103  104 1   
   105  103  106 1   
   106  103  111 1   
   107  104  105 2   
   108  104  114 1   
   109  106  107 1   
   110  106  112 1   
   111  106  113 1   
   112  107  108 1   
   113  107  109 1   
   114  114  115 1   
   115  114  125 1   
   116  115  116 1   
   117  115  118 1   
   118  115  126 1   
   119  116  117 2   
   120  116  134 1   
   121  118  119 1   
   122  118  127 1   
   123  118  128 1   
   124  119  120 ar  
   125  119  121 ar  
   126  120  122 ar  
   127  120  129 1   
   128  121  123 ar  
   129  121  130 1   
   130  122  124 ar  
   131  122  131 1   
   132  123  124 ar  
   133  123  132 1   
   134  124  133 1   
   135  134  135 1   
   136  134  140 1   
   137  135  136 1   
   138  135  138 1   
   139  135  141 1   
   140  136  137 2   
   141  136  148 1   
   142  138  139 1   
   143  138  142 1   
   144  138  143 1   
   145  139  140 1   
   146  139  144 1   
   147  139  145 1   
   148  140  146 1   
   149  140  147 1   
   150  148  149 1   
   151  148  157 1   
   152  149  150 1   
   153  149  152 1   
   154  149  158 1   
   155  150  151 2   
   156  150  163 1   
   157  152  153 1   
   158  152  159 1   
   159  152  160 1   
   160  153  154 1   
   161  153  161 1   
   162  153  162 1   
   163  154  155 1   
   164  154  156 1   
   165  163  164 1   
   166  163  168 1   
   167  164  165 1   
   168  164  166 1   
   169  164  167 1   
   170  170  171 1   
   171  170  172 1   
   172  173  174 1   
   173  173  175 1   
@<TRIPOS>SUBSTRUCTURE
     1 MOL         1 TEMP              0 ****  ****    0 ROOT
