@<TRIPOS>MOLECULE
MOL
  175   173     1     0     0
SMALL
resp


@<TRIPOS>ATOM
      1 C1         -0.0300    3.4660    5.6130 c3        1 MOL     -0.307198
      2 C2         -0.6440    3.4730    4.2210 c         1 MOL      0.736375
      3 O1          0.0080    3.8480    3.2530 o         1 MOL     -0.571099
      4 H1          1.0490    3.6040    5.5350 hc        1 MOL      0.072718
      5 H2         -0.4580    4.2760    6.2050 hc        1 MOL      0.072718
      6 H3         -0.2380    2.5120    6.0990 hc        1 MOL      0.072718
      7 N1         -1.9080    3.0180    4.0660 n         1 MOL     -0.771214
      8 C3         -2.5280    2.9300    2.7240 c3        1 MOL      0.373436
      9 C4         -2.6070    4.2830    2.0270 c         1 MOL      0.637993
     10 O2         -3.0660    5.2420    2.6590 o         1 MOL     -0.603446
     11 C5         -3.9200    2.3650    2.7280 c3        1 MOL     -0.543198
     12 C6         -4.5850    2.3570    1.3970 c         1 MOL      0.786882
     13 O3         -5.7160    2.9050    1.2870 o         1 MOL     -0.636152
     14 O4         -3.9090    1.9360    0.3910 o         1 MOL     -0.636152
     15 H4         -2.4250    2.7200    4.8890 hn        1 MOL      0.350594
     16 H5         -1.9780    2.1550    2.1910 h1        1 MOL      0.092649
     17 H6         -4.3910    3.0140    3.4770 hc        1 MOL      0.095850
     18 H7         -3.9380    1.3430    3.1080 hc        1 MOL      0.095850
     19 N2         -2.2870    4.3800    0.7530 n         1 MOL     -0.501665
     20 C7         -2.5980    5.4800   -0.1700 c3        1 MOL      0.239960
     21 C8         -3.2330    4.9980   -1.5180 c         1 MOL      0.428549
     22 O5         -2.9920    5.6470   -2.5210 o         1 MOL     -0.562356
     23 C9         -1.3800    6.3430   -0.3750 c3        1 MOL     -0.188530
     24 H8         -1.7650    3.6580    0.2800 hn        1 MOL      0.272625
     25 H9         -3.3120    6.2000    0.2460 h1        1 MOL      0.025692
     26 H10        -1.5250    7.2620   -0.9160 hc        1 MOL      0.043795
     27 H11        -1.0140    6.7210    0.5860 hc        1 MOL      0.043795
     28 H12        -0.5400    5.9420   -0.9390 hc        1 MOL      0.043795
     29 N3         -3.9770    3.8920   -1.5990 n         1 MOL     -0.259261
     30 C10        -4.6930    3.4400   -2.8230 c3        1 MOL      0.164823
     31 C11        -6.1140    2.9160   -2.5870 c         1 MOL      0.263439
     32 O6         -6.9910    3.0490   -3.4390 o         1 MOL     -0.549878
     33 C12        -3.8550    2.3970   -3.5850 c3        1 MOL     -0.091089
     34 C13        -3.2300    1.3430   -2.6840 c         1 MOL      0.705378
     35 O7         -1.9750    1.3230   -2.5330 o         1 MOL     -0.732028
     36 O8         -3.9520    0.5290   -2.0930 o         1 MOL     -0.732028
     37 H13        -4.1500    3.3820   -0.7490 hn        1 MOL      0.116214
     38 H14        -4.8760    4.2400   -3.5450 h1        1 MOL      0.037445
     39 H15        -3.0910    2.8350   -4.2300 hc        1 MOL      0.022233
     40 H16        -4.5090    1.7800   -4.1930 hc        1 MOL      0.022233
     41 N4         -6.3620    2.1710   -1.5010 n         1 MOL      0.125919
     42 C14        -7.5780    1.4060   -1.1600 c3        1 MOL     -0.382884
     43 C15        -7.5250   -0.1140   -1.4320 c         1 MOL      0.634964
     44 O9         -8.4660   -0.8530   -1.2020 o         1 MOL     -0.648277
     45 H17        -5.6430    2.2430   -0.7940 hn        1 MOL      0.000467
     46 H18        -8.4400    1.6880   -1.7720 h1        1 MOL      0.141522
     47 H19        -7.6970    1.6090   -0.0970 h1        1 MOL      0.141522
     48 N5         -6.4490   -0.7230   -1.8530 n         1 MOL     -0.250981
     49 C16        -6.2270   -2.1830   -2.1660 c3        1 MOL     -0.162097
     50 C17        -6.2900   -3.3020   -1.0680 c         1 MOL      0.500102
     51 O10        -6.3580   -4.5490   -1.4060 o         1 MOL     -0.532968
     52 C18        -5.0820   -2.3250   -3.1430 c3        1 MOL     -0.157924
     53 C19        -3.7560   -2.3140   -2.4990 c         1 MOL      0.636916
     54 N6         -2.6470   -2.3690   -3.2110 n         1 MOL     -0.710548
     55 O11        -3.6080   -2.3880   -1.2900 o         1 MOL     -0.383455
     56 H20        -5.6410   -0.1420   -2.0150 hn        1 MOL      0.180356
     57 H21        -7.1640   -2.4300   -2.6850 h1        1 MOL      0.129890
     58 H22        -5.1220   -1.5760   -3.9330 hc        1 MOL      0.075133
     59 H23        -5.2090   -3.2910   -3.6460 hc        1 MOL      0.075133
     60 H24        -2.6320   -2.1630   -4.2040 hn        1 MOL      0.339207
     61 H25        -1.8060   -2.4100   -2.6610 hn        1 MOL      0.339207
     62 N7         -6.2420   -2.9950    0.2350 n         1 MOL     -0.309921
     63 C20        -6.2150   -3.9040    1.3660 c3        1 MOL     -0.014675
     64 C21        -4.8240   -4.5080    1.6280 c         1 MOL      0.486298
     65 O12        -4.8160   -5.4510    2.3350 o         1 MOL     -0.580396
     66 H26        -6.2400   -2.0190    0.4820 hn        1 MOL      0.265602
     67 H27        -6.8690   -4.7840    1.3010 h1        1 MOL      0.065975
     68 H28        -6.5690   -3.4270    2.2810 h1        1 MOL      0.065975
     69 N8         -3.6830   -4.0080    1.1350 n         1 MOL     -0.035770
     70 C22        -2.3170   -4.4610    1.2950 c3        1 MOL     -0.278271
     71 C23        -1.2270   -3.3920    1.4950 c         1 MOL      0.522119
     72 O13        -1.2690   -2.3960    0.8350 o         1 MOL     -0.366718
     73 C24        -1.9090   -5.3710    0.1310 c3        1 MOL      0.548631
     74 C25        -2.5550   -6.7820    0.2680 c3        1 MOL     -0.564302
     75 O14        -2.3110   -4.8530   -1.1470 oh        1 MOL     -0.588570
     76 H29        -3.8410   -3.1930    0.5680 hn        1 MOL     -0.039711
     77 H30        -2.2870   -5.1260    2.1580 h1        1 MOL      0.095809
     78 H31        -0.8450   -5.5850    0.0850 h1        1 MOL     -0.011710
     79 H32        -2.3420   -3.8980   -1.1560 ho        1 MOL      0.277043
     80 H33        -2.2010   -7.3250    1.1450 hc        1 MOL      0.141788
     81 H34        -3.6380   -6.6660    0.3390 hc        1 MOL      0.141788
     82 H35        -2.3380   -7.3160   -0.6560 hc        1 MOL      0.141788
     83 N9         -0.1060   -3.6390    2.2210 n         1 MOL     -0.641566
     84 C26         1.0830   -2.7720    2.0970 c3        1 MOL      0.084212
     85 C27         1.7820   -3.0070    0.7740 c         1 MOL      0.460345
     86 O15         2.0130   -4.1300    0.3120 o         1 MOL     -0.574507
     87 C28         1.9110   -3.0630    3.3590 c3        1 MOL      0.100356
     88 C29         1.3590   -2.5320    4.6700 c3        1 MOL      0.206525
     89 C30         3.3690   -2.5260    3.2150 c3        1 MOL     -0.194474
     90 C31         2.0590   -2.9720    5.9650 c3        1 MOL     -0.238476
     91 H36        -0.2110   -4.3660    2.9110 hn        1 MOL      0.331341
     92 H37         0.7790   -1.7300    2.0880 h1        1 MOL      0.041387
     93 H38         1.8890   -4.1460    3.4300 hc        1 MOL     -0.008964
     94 H39         0.3230   -2.8630    4.7620 hc        1 MOL     -0.050818
     95 H40         1.2180   -1.4510    4.6170 hc        1 MOL     -0.050818
     96 H41         3.3260   -1.4550    3.0120 hc        1 MOL      0.039080
     97 H42         3.9430   -2.7500    4.1110 hc        1 MOL      0.039080
     98 H43         3.7930   -3.1350    2.4170 hc        1 MOL      0.039080
     99 H44         3.0340   -2.4900    6.0170 hc        1 MOL      0.047798
    100 H45         1.4490   -2.7150    6.8330 hc        1 MOL      0.047798
    101 H46         2.0570   -4.0650    6.0000 hc        1 MOL      0.047798
    102 N10         2.0330   -1.9340    0.0850 n         1 MOL     -0.051346
    103 C32         2.8090   -1.8210   -1.1430 c3        1 MOL      0.062950
    104 C33         4.2040   -1.2910   -0.8880 c         1 MOL      0.315763
    105 O16         4.4910   -0.7470    0.1620 o         1 MOL     -0.290179
    106 C34         2.0400   -0.8610   -2.0390 c3        1 MOL     -0.202875
    107 C35         0.6250   -1.4220   -2.4180 c         1 MOL      0.672622
    108 O17         0.5440   -1.9240   -3.5920 o         1 MOL     -0.664403
    109 O18        -0.4070   -1.3150   -1.6870 o         1 MOL     -0.664403
    110 H47         1.7930   -1.1050    0.6130 hn        1 MOL      0.003686
    111 H48         2.8590   -2.7830   -1.6380 h1        1 MOL      0.063450
    112 H49         2.5740   -0.7080   -2.9740 hc        1 MOL      0.053709
    113 H50         1.9820    0.0170   -1.3880 hc        1 MOL      0.053709
    114 N11         5.1060   -1.4790   -1.8490 n         1 MOL     -0.559314
    115 C36         6.5360   -1.0840   -1.6850 c3        1 MOL      0.309128
    116 C37         6.8080    0.3680   -1.2070 c         1 MOL      0.294456
    117 O19         7.6240    0.4320   -0.3180 o         1 MOL     -0.466977
    118 C38         7.3800   -1.5300   -2.8960 c3        1 MOL     -0.160968
    119 C39         8.8210   -1.5460   -2.6120 ca        1 MOL      0.132966
    120 C40         9.6810   -0.5720   -3.2260 ca        1 MOL     -0.191742
    121 C41         9.3450   -2.5920   -1.7940 ca        1 MOL     -0.191742
    122 C42        11.0670   -0.6000   -2.9840 ca        1 MOL     -0.124754
    123 C43        10.7370   -2.5370   -1.4970 ca        1 MOL     -0.124754
    124 C44        11.5340   -1.5470   -2.0770 ca        1 MOL     -0.071841
    125 H51         4.8360   -1.9760   -2.6930 hn        1 MOL      0.336381
    126 H52         6.9400   -1.7420   -0.9250 h1        1 MOL      0.054904
    127 H53         7.0680   -0.9290   -3.7430 hc        1 MOL      0.044694
    128 H54         7.1380   -2.5330   -3.2430 hc        1 MOL      0.044694
    129 H55         9.2690    0.2980   -3.7220 ha        1 MOL      0.132405
    130 H56         8.7100   -3.3280   -1.3370 ha        1 MOL      0.132405
    131 H57        11.6520    0.1630   -3.4640 ha        1 MOL      0.120784
    132 H58        11.1470   -3.2190   -0.7700 ha        1 MOL      0.120784
    133 H59        12.6010   -1.5680   -1.9030 ha        1 MOL      0.074966
    134 N12         6.1810    1.4270   -1.8000 n         1 MOL     -0.036417
    135 C45         6.3160    2.7730   -1.3430 c3        1 MOL      0.137848
    136 C46         5.8110    2.9760    0.1500 c         1 MOL      0.266366
    137 O20         6.3790    3.7860    0.8890 o         1 MOL     -0.492560
    138 C47         5.5560    3.6980   -2.2660 c3        1 MOL     -0.247861
    139 C48         4.5960    2.7140   -2.9160 c3        1 MOL      0.101196
    140 C49         5.4880    1.4770   -3.0950 c3        1 MOL     -0.188328
    141 H60         7.3520    3.0920   -1.3300 h1        1 MOL      0.029640
    142 H61         4.8600    4.3700   -1.7590 hc        1 MOL      0.088505
    143 H62         6.1410    4.1690   -3.0570 hc        1 MOL      0.088505
    144 H63         3.7690    2.4160   -2.2780 hc        1 MOL      0.018150
    145 H64         4.2010    3.0820   -3.8630 hc        1 MOL      0.018150
    146 H65         4.9290    0.5530   -3.2410 h1        1 MOL      0.064750
    147 H66         6.1820    1.7620   -3.8930 h1        1 MOL      0.064750
    148 N13         4.7930    2.1800    0.5630 n         1 MOL     -0.136038
    149 C50         4.1180    2.2890    1.9540 c3        1 MOL     -0.129134
    150 C51         5.0230    1.5120    2.9730 c         1 MOL      0.462230
    151 O21         5.1540    1.9470    4.0760 o         1 MOL     -0.557212
    152 C52         2.6770    1.6360    1.8630 c3        1 MOL     -0.002966
    153 C53         1.7870    2.3830    0.8050 c3        1 MOL     -0.118901
    154 C54         0.4070    1.6240    0.6390 c         1 MOL      0.491378
    155 O22        -0.5680    2.2320    0.0750 o         1 MOL     -0.611481
    156 O23         0.2120    0.4450    0.9970 o         1 MOL     -0.611481
    157 H67         4.5690    1.3660    0.0070 hn        1 MOL      0.221136
    158 H68         4.0340    3.3060    2.3190 h1        1 MOL      0.135442
    159 H69         2.2700    1.6570    2.8780 hc        1 MOL      0.041280
    160 H70         2.8740    0.5770    1.6650 hc        1 MOL      0.041280
    161 H71         2.2350    2.4420   -0.1890 hc        1 MOL      0.058054
    162 H72         1.4900    3.3700    1.1760 hc        1 MOL      0.058054
    163 N14         5.7090    0.4460    2.5390 n         1 MOL      0.019249
    164 C55         6.6990   -0.3510    3.2860 c3        1 MOL     -0.278725
    165 H73         7.4790    0.3060    3.6690 h1        1 MOL      0.098126
    166 H74         6.2070   -0.8540    4.1180 h1        1 MOL      0.098126
    167 H75         7.1440   -1.0930    2.6230 h1        1 MOL      0.098126
    168 H76         5.5100    0.1450    1.5860 hn        1 MOL     -0.024778
    169 Ca1        -2.1550   -0.0010   -0.2560 Ca        1 MOL      1.666127
    170 O24        -1.7150   -0.0170    2.7860 oh        1 MOL     -0.859657
    171 H77        -1.6960    0.2390    3.7040 ho        1 MOL      0.404489
    172 H78        -0.8100    0.0580    2.4920 ho        1 MOL      0.404489
    173 O25        -3.9590   -1.0480    1.4400 oh        1 MOL     -0.859657
    174 H79        -4.8560   -1.1260    1.7700 ho        1 MOL      0.404489
    175 H80        -3.4160   -1.0400    2.2320 ho        1 MOL      0.404489
@<TRIPOS>BOND
     1    1    2 1   
     2    1    4 1   
     3    1    5 1   
     4    1    6 1   
     5    2    3 2   
     6    2    7 1   
     7    7    8 1   
     8    7   15 1   
     9    8    9 1   
    10    8   11 1   
    11    8   16 1   
    12    9   10 2   
    13    9   19 1   
    14   11   12 1   
    15   11   17 1   
    16   11   18 1   
    17   12   13 1   
    18   12   14 1   
    19   19   20 1   
    20   19   24 1   
    21   20   21 1   
    22   20   23 1   
    23   20   25 1   
    24   21   22 2   
    25   21   29 1   
    26   23   26 1   
    27   23   27 1   
    28   23   28 1   
    29   29   30 1   
    30   29   37 1   
    31   30   31 1   
    32   30   33 1   
    33   30   38 1   
    34   31   32 2   
    35   31   41 1   
    36   33   34 1   
    37   33   39 1   
    38   33   40 1   
    39   34   35 1   
    40   34   36 1   
    41   41   42 1   
    42   41   45 1   
    43   42   43 1   
    44   42   46 1   
    45   42   47 1   
    46   43   44 2   
    47   43   48 1   
    48   48   49 1   
    49   48   56 1   
    50   49   50 1   
    51   49   52 1   
    52   49   57 1   
    53   50   51 2   
    54   50   62 1   
    55   52   53 1   
    56   52   58 1   
    57   52   59 1   
    58   53   54 1   
    59   53   55 2   
    60   54   60 1   
    61   54   61 1   
    62   62   63 1   
    63   62   66 1   
    64   63   64 1   
    65   63   67 1   
    66   63   68 1   
    67   64   65 2   
    68   64   69 1   
    69   69   70 1   
    70   69   76 1   
    71   70   71 1   
    72   70   73 1   
    73   70   77 1   
    74   71   72 2   
    75   71   83 1   
    76   73   74 1   
    77   73   75 1   
    78   73   78 1   
    79   74   80 1   
    80   74   81 1   
    81   74   82 1   
    82   75   79 1   
    83   83   84 1   
    84   83   91 1   
    85   84   85 1   
    86   84   87 1   
    87   84   92 1   
    88   85   86 2   
    89   85  102 1   
    90   87   88 1   
    91   87   89 1   
    92   87   93 1   
    93   88   90 1   
    94   88   94 1   
    95   88   95 1   
    96   89   96 1   
    97   89   97 1   
    98   89   98 1   
    99   90   99 1   
   100   90  100 1   
   101   90  101 1   
   102  102  103 1   
   103  102  110 1   
   104  103  104 1   
   105  103  106 1   
   106  103  111 1   
   107  104  105 2   
   108  104  114 1   
   109  106  107 1   
   110  106  112 1   
   111  106  113 1   
   112  107  108 1   
   113  107  109 1   
   114  114  115 1   
   115  114  125 1   
   116  115  116 1   
   117  115  118 1   
   118  115  126 1   
   119  116  117 2   
   120  116  134 1   
   121  118  119 1   
   122  118  127 1   
   123  118  128 1   
   124  119  120 ar  
   125  119  121 ar  
   126  120  122 ar  
   127  120  129 1   
   128  121  123 ar  
   129  121  130 1   
   130  122  124 ar  
   131  122  131 1   
   132  123  124 ar  
   133  123  132 1   
   134  124  133 1   
   135  134  135 1   
   136  134  140 1   
   137  135  136 1   
   138  135  138 1   
   139  135  141 1   
   140  136  137 2   
   141  136  148 1   
   142  138  139 1   
   143  138  142 1   
   144  138  143 1   
   145  139  140 1   
   146  139  144 1   
   147  139  145 1   
   148  140  146 1   
   149  140  147 1   
   150  148  149 1   
   151  148  157 1   
   152  149  150 1   
   153  149  152 1   
   154  149  158 1   
   155  150  151 2   
   156  150  163 1   
   157  152  153 1   
   158  152  159 1   
   159  152  160 1   
   160  153  154 1   
   161  153  161 1   
   162  153  162 1   
   163  154  155 1   
   164  154  156 1   
   165  163  164 1   
   166  163  168 1   
   167  164  165 1   
   168  164  166 1   
   169  164  167 1   
   170  170  171 1   
   171  170  172 1   
   172  173  174 1   
   173  173  175 1   
@<TRIPOS>SUBSTRUCTURE
     1 MOL         1 TEMP              0 ****  ****    0 ROOT
