@<TRIPOS>MOLECULE
MOL
  176   174     1     0     0
SMALL
resp


@<TRIPOS>ATOM
      1 C1          1.4110    4.3040    5.9300 c3        1 MOL     -0.361414
      2 C2          1.1860    3.6660    4.5400 c         1 MOL      0.633881
      3 O1          2.1620    3.3740    3.7420 o         1 MOL     -0.576280
      4 H1          0.4570    4.3850    6.4510 hc        1 MOL      0.098131
      5 H2          2.0900    3.6790    6.5100 hc        1 MOL      0.098131
      6 H3          1.8440    5.2970    5.8080 hc        1 MOL      0.098131
      7 N1         -0.1150    3.5750    4.1280 n         1 MOL     -0.428330
      8 C3         -0.5270    3.2430    2.7460 c3        1 MOL      0.036195
      9 C4         -0.7290    4.4660    1.8380 c         1 MOL      0.449925
     10 O2         -1.3730    5.4270    2.2460 o         1 MOL     -0.531607
     11 C5         -1.7520    2.3170    2.8800 c3        1 MOL     -0.100592
     12 C6         -1.9940    1.5040    1.5840 c         1 MOL      0.790540
     13 O3         -2.3190    0.3220    1.4540 o         1 MOL     -0.761574
     14 O4         -2.0530    2.1400    0.5220 o         1 MOL     -0.761574
     15 H4         -0.7810    3.7020    4.8870 hn        1 MOL      0.291685
     16 H5          0.2280    2.5580    2.3610 h1        1 MOL      0.089201
     17 H6         -2.6330    2.9220    3.0860 hc        1 MOL      0.022640
     18 H7         -1.6510    1.7220    3.7830 hc        1 MOL      0.022640
     19 N2         -0.1900    4.4460    0.6370 n         1 MOL     -0.325633
     20 C7         -0.3350    5.5200   -0.3890 c3        1 MOL      0.060522
     21 C8         -1.6330    5.5720   -1.1400 c         1 MOL      0.483905
     22 O5         -1.8720    6.6190   -1.7600 o         1 MOL     -0.580392
     23 C9          0.9060    5.3990   -1.3830 c3        1 MOL     -0.090705
     24 C10         2.3060    5.6730   -0.7610 c3        1 MOL     -0.070214
     25 C11         3.4460    5.5690   -1.7290 c3        1 MOL     -0.012861
     26 C12         3.7380    6.6280   -2.7650 c3        1 MOL     -0.006764
     27 N3          4.8840    6.3040   -3.6890 n4        1 MOL     -0.321023
     28 H8          0.2350    3.5770    0.3490 hn        1 MOL      0.244433
     29 H9         -0.2690    6.5100    0.0650 h1        1 MOL      0.088758
     30 H10         0.7070    6.1900   -2.1170 hc        1 MOL      0.046370
     31 H11         0.9370    4.4420   -1.9160 hc        1 MOL      0.046370
     32 H12         2.5720    5.0000    0.0490 hc        1 MOL      0.058439
     33 H13         2.2990    6.6710   -0.3270 hc        1 MOL      0.058439
     34 H14         3.3090    4.5880   -2.2040 hc        1 MOL      0.056329
     35 H15         4.3730    5.4890   -1.1580 hc        1 MOL      0.056329
     36 H16         4.0620    7.4590   -2.1370 hx        1 MOL      0.087522
     37 H17         2.8620    6.8630   -3.3670 hx        1 MOL      0.087522
     38 H18         5.0920    7.0230   -4.3680 hn        1 MOL      0.319176
     39 H19         5.8140    6.2570   -3.2930 hn        1 MOL      0.319176
     40 H20         4.7310    5.4050   -4.1110 hn        1 MOL      0.319176
     41 N4         -2.4480    4.5470   -1.1500 n         1 MOL     -0.263247
     42 C13        -3.6440    4.4250   -2.0010 c3        1 MOL      0.026829
     43 C14        -4.8410    4.0210   -1.1960 c         1 MOL      0.521128
     44 O6         -5.9410    4.3870   -1.5020 o         1 MOL     -0.556843
     45 C15        -3.3340    3.4580   -3.2320 c3        1 MOL     -0.140086
     46 C16        -2.9610    2.0990   -2.7700 c         1 MOL      0.736184
     47 O7         -3.6240    1.3730   -1.9920 o         1 MOL     -0.771891
     48 O8         -1.7990    1.7880   -3.0330 o         1 MOL     -0.771891
     49 H21        -2.2480    3.7750   -0.5250 hn        1 MOL      0.122113
     50 H22        -3.9030    5.3640   -2.4820 h1        1 MOL      0.097057
     51 H23        -2.5630    3.8520   -3.8920 hc        1 MOL      0.048058
     52 H24        -4.2090    3.5030   -3.8710 hc        1 MOL      0.048058
     53 N5         -4.7170    3.3370   -0.0600 n         1 MOL     -0.343119
     54 C17        -5.8150    2.9680    0.8450 c3        1 MOL     -0.360947
     55 C18        -6.5970    1.8010    0.3270 c         1 MOL      0.585692
     56 O9         -7.5540    1.4680    1.0270 o         1 MOL     -0.605723
     57 H25        -3.8480    2.8420    0.0980 hn        1 MOL      0.364751
     58 H26        -6.5230    3.8060    0.7990 h1        1 MOL      0.176707
     59 H27        -5.3980    2.7160    1.8270 h1        1 MOL      0.176707
     60 N6         -6.2330    1.0280   -0.6460 n         1 MOL     -0.238881
     61 C19        -6.8330   -0.3310   -0.8860 c3        1 MOL     -0.085067
     62 C20        -6.7790   -1.3720    0.2270 c         1 MOL      0.434309
     63 O10        -7.5180   -2.3470    0.1980 o         1 MOL     -0.482957
     64 C21        -6.2850   -0.9300   -2.1450 c3        1 MOL     -0.215992
     65 C22        -4.8120   -1.3830   -2.1070 c         1 MOL      0.731168
     66 N7         -4.4210   -2.0350   -3.1140 n         1 MOL     -0.651823
     67 O11        -4.0440   -1.1910   -1.1290 o         1 MOL     -0.603150
     68 H28        -5.3270    1.1720   -1.0540 hn        1 MOL      0.178336
     69 H29        -7.8870   -0.1310   -1.0280 h1        1 MOL      0.127225
     70 H30        -6.4140   -0.2550   -2.9860 hc        1 MOL      0.080713
     71 H31        -6.8510   -1.8280   -2.3660 hc        1 MOL      0.080713
     72 H32        -5.1140   -2.2870   -3.8100 hn        1 MOL      0.297166
     73 H33        -3.5040   -2.4520   -3.1100 hn        1 MOL      0.297166
     74 N8         -5.9580   -1.1410    1.3020 n         1 MOL     -0.167654
     75 C23        -6.0750   -1.9340    2.4900 c3        1 MOL     -0.310307
     76 C24        -5.0380   -3.0430    2.5440 c         1 MOL      0.526108
     77 O12        -5.0930   -3.9100    3.4370 o         1 MOL     -0.559813
     78 H34        -5.4620   -0.2500    1.2830 hn        1 MOL      0.295256
     79 H35        -7.1020   -2.2880    2.5850 h1        1 MOL      0.142883
     80 H36        -5.7840   -1.3860    3.3780 h1        1 MOL      0.142883
     81 N9         -4.0040   -2.9150    1.6720 n         1 MOL     -0.139574
     82 C25        -2.7630   -3.7240    1.7580 c3        1 MOL      0.111515
     83 C26        -1.5100   -2.9630    1.2690 c         1 MOL      0.328371
     84 O13        -1.3910   -2.3380    0.2370 o         1 MOL     -0.549001
     85 C27        -2.8860   -5.0830    1.2020 c3        1 MOL     -0.100970
     86 C28        -3.6050   -5.2510   -0.0540 ca        1 MOL      0.231667
     87 C29        -4.9740   -5.4380   -0.1440 ca        1 MOL     -0.271976
     88 C30        -2.8310   -5.2010   -1.2530 ca        1 MOL     -0.271976
     89 C31        -5.5730   -5.5830   -1.4160 ca        1 MOL     -0.206147
     90 C32        -3.4320   -5.2270   -2.4920 ca        1 MOL     -0.206147
     91 C33        -4.8120   -5.5180   -2.5940 ca        1 MOL      0.261508
     92 O14        -5.4570   -5.6740   -3.7890 oh        1 MOL     -0.461397
     93 H37        -3.8710   -2.1060    1.0890 hn        1 MOL      0.077590
     94 H38        -2.6330   -3.8100    2.8340 h1        1 MOL      0.027106
     95 H39        -3.2940   -5.7180    1.9780 hc        1 MOL      0.021547
     96 H40        -1.8910   -5.4230    0.9050 hc        1 MOL      0.021547
     97 H41        -5.5280   -5.5110    0.7870 ha        1 MOL      0.185337
     98 H42        -1.7950   -4.9130   -1.2800 ha        1 MOL      0.185337
     99 H43        -6.6350   -5.7650   -1.4010 ha        1 MOL      0.138572
    100 H44        -2.8270   -4.9940   -3.3620 ha        1 MOL      0.138572
    101 H45        -4.9200   -5.4850   -4.5690 ho        1 MOL      0.338548
    102 N10        -0.4460   -3.2120    1.9350 n         1 MOL     -0.057951
    103 C34         0.9100   -2.5920    1.8870 c3        1 MOL     -0.338113
    104 C35         1.8510   -3.6850    1.3240 c         1 MOL      0.667743
    105 O15         1.7350   -4.8510    1.6600 o         1 MOL     -0.565038
    106 C36         1.2810   -1.9450    3.2440 c3        1 MOL      0.360070
    107 C37         0.0900   -1.0830    3.6830 c3        1 MOL      0.175891
    108 C38         2.5530   -1.1170    3.1980 c3        1 MOL     -0.454509
    109 C39         0.4040   -0.2760    4.9420 c3        1 MOL     -0.347309
    110 H46        -0.5850   -3.8540    2.7070 hn        1 MOL      0.182308
    111 H47         0.9230   -1.7780    1.1610 h1        1 MOL      0.060987
    112 H48         1.4390   -2.7070    4.0020 hc        1 MOL     -0.045887
    113 H49        -0.7900   -1.7050    3.8450 hc        1 MOL     -0.046488
    114 H50        -0.1520   -0.3750    2.8890 hc        1 MOL     -0.046488
    115 H51         2.4110   -0.2340    2.5780 hc        1 MOL      0.093112
    116 H52         2.9450   -0.9380    4.2000 hc        1 MOL      0.093112
    117 H53         3.2810   -1.6770    2.6070 hc        1 MOL      0.093112
    118 H54         1.1150    0.5110    4.7250 hc        1 MOL      0.079406
    119 H55        -0.4330    0.2830    5.3470 hc        1 MOL      0.079406
    120 H56         0.8500   -0.9530    5.6810 hc        1 MOL      0.079406
    121 N11         2.8910   -3.2250    0.6050 n         1 MOL     -0.360039
    122 C40         3.9430   -4.1330    0.0350 c3        1 MOL      0.107841
    123 C41         5.3170   -3.4930    0.1760 c         1 MOL      0.217776
    124 O16         5.4470   -2.3150    0.6230 o         1 MOL     -0.239201
    125 C42         3.5590   -4.4630   -1.4150 c3        1 MOL     -0.029336
    126 O17         3.1200   -3.3220   -2.1100 oh        1 MOL     -0.548658
    127 H57         2.8990   -2.2550    0.3100 hn        1 MOL      0.293733
    128 H58         3.9000   -5.1260    0.4780 h1        1 MOL      0.067569
    129 H59         2.7620   -5.2050   -1.3900 h1        1 MOL      0.052327
    130 H60         4.4990   -4.7800   -1.8710 h1        1 MOL      0.052327
    131 H61         3.3200   -3.5760   -3.0150 ho        1 MOL      0.398412
    132 N12         6.3740   -4.2760   -0.1530 n         1 MOL     -0.299389
    133 C43         7.8280   -3.8780   -0.0750 c3        1 MOL     -0.010318
    134 C44         8.1030   -2.5080   -0.5960 c         1 MOL      0.504052
    135 O18         8.7360   -1.6530    0.0270 o         1 MOL     -0.536613
    136 C45         8.7930   -4.9230   -0.7020 c3        1 MOL     -0.257765
    137 H62         6.2230   -5.2570   -0.3330 hn        1 MOL      0.283317
    138 H63         8.1000   -3.9070    0.9860 h1        1 MOL      0.100212
    139 H64         8.6030   -4.9610   -1.7760 hc        1 MOL      0.090047
    140 H65         9.8370   -4.6330   -0.6020 hc        1 MOL      0.090047
    141 H66         8.6470   -5.9470   -0.3520 hc        1 MOL      0.090047
    142 N13         7.6760   -2.1850   -1.7750 n         1 MOL     -0.369880
    143 C46         7.7970   -0.8570   -2.4100 c3        1 MOL      0.078898
    144 C47         6.9050    0.2660   -1.8120 c         1 MOL      0.420747
    145 O19         7.2770    1.4320   -1.9720 o         1 MOL     -0.552175
    146 C48         7.4630   -1.1430   -3.8910 c3        1 MOL     -0.223522
    147 H67         7.1350   -2.8580   -2.3020 hn        1 MOL      0.278073
    148 H68         8.8160   -0.4890   -2.3260 h1        1 MOL      0.124276
    149 H69         6.4360   -1.5100   -3.9370 hc        1 MOL      0.057573
    150 H70         7.6300   -0.2000   -4.4160 hc        1 MOL      0.057573
    151 H71         8.1000   -1.9290   -4.2960 hc        1 MOL      0.057573
    152 N14         5.9310    0.0270   -0.9310 n         1 MOL     -0.180698
    153 C49         5.3000    1.0520   -0.1220 c3        1 MOL      0.022689
    154 C50         6.1190    1.2100    1.1440 c         1 MOL      0.458168
    155 O20         6.3700    2.3630    1.5560 o         1 MOL     -0.549651
    156 C51         3.8010    0.8160    0.0510 c3        1 MOL      0.010559
    157 C52         2.9570    1.3000   -1.1310 c3        1 MOL      0.093645
    158 C53         1.5320    0.8890   -0.9900 c         1 MOL      0.755537
    159 O21         0.9990    0.1180   -1.8390 o         1 MOL     -0.789046
    160 O22         0.8470    1.3210   -0.0450 o         1 MOL     -0.789046
    161 H72         5.6210   -0.9340   -0.9290 hn        1 MOL      0.137126
    162 H73         5.3830    2.0280   -0.5980 h1        1 MOL      0.033491
    163 H74         3.4560    1.2550    0.9820 hc        1 MOL      0.038064
    164 H75         3.6230   -0.2570    0.1310 hc        1 MOL      0.038064
    165 H76         3.3650    0.8220   -2.0250 hc        1 MOL     -0.074841
    166 H77         3.0510    2.3790   -1.2370 hc        1 MOL     -0.074841
    167 N15         6.5650    0.1130    1.7420 n         1 MOL     -0.133704
    168 C54         7.3670    0.0720    2.9820 c3        1 MOL     -0.292318
    169 H78         6.7130    0.2150    3.8420 h1        1 MOL      0.125007
    170 H79         7.8650   -0.8940    3.0620 h1        1 MOL      0.125007
    171 H80         8.1140    0.8660    2.9590 h1        1 MOL      0.125007
    172 H81         6.1400   -0.7240    1.3770 hn        1 MOL      0.082272
    173 Ca1        -1.4100    0.1940   -1.0180 Ca        1 MOL      1.784101
    174 O23        -1.4730   -1.6340   -3.0610 oh        1 MOL     -0.802257
    175 H82        -1.8160   -1.2350   -3.8620 ho        1 MOL      0.398460
    176 H83        -0.8980   -2.3270   -3.3660 ho        1 MOL      0.398460
@<TRIPOS>BOND
     1    1    2 1   
     2    1    4 1   
     3    1    5 1   
     4    1    6 1   
     5    2    3 2   
     6    2    7 1   
     7    7    8 1   
     8    7   15 1   
     9    8    9 1   
    10    8   11 1   
    11    8   16 1   
    12    9   10 2   
    13    9   19 1   
    14   11   12 1   
    15   11   17 1   
    16   11   18 1   
    17   12   13 1   
    18   12   14 1   
    19   19   20 1   
    20   19   28 1   
    21   20   21 1   
    22   20   23 1   
    23   20   29 1   
    24   21   22 2   
    25   21   41 1   
    26   23   24 1   
    27   23   30 1   
    28   23   31 1   
    29   24   25 1   
    30   24   32 1   
    31   24   33 1   
    32   25   26 1   
    33   25   34 1   
    34   25   35 1   
    35   26   27 1   
    36   26   36 1   
    37   26   37 1   
    38   27   38 1   
    39   27   39 1   
    40   27   40 1   
    41   41   42 1   
    42   41   49 1   
    43   42   43 1   
    44   42   45 1   
    45   42   50 1   
    46   43   44 2   
    47   43   53 1   
    48   45   46 1   
    49   45   51 1   
    50   45   52 1   
    51   46   47 1   
    52   46   48 1   
    53   53   54 1   
    54   53   57 1   
    55   54   55 1   
    56   54   58 1   
    57   54   59 1   
    58   55   56 2   
    59   55   60 1   
    60   60   61 1   
    61   60   68 1   
    62   61   62 1   
    63   61   64 1   
    64   61   69 1   
    65   62   63 2   
    66   62   74 1   
    67   64   65 1   
    68   64   70 1   
    69   64   71 1   
    70   65   66 1   
    71   65   67 2   
    72   66   72 1   
    73   66   73 1   
    74   74   75 1   
    75   74   78 1   
    76   75   76 1   
    77   75   79 1   
    78   75   80 1   
    79   76   77 2   
    80   76   81 1   
    81   81   82 1   
    82   81   93 1   
    83   82   83 1   
    84   82   85 1   
    85   82   94 1   
    86   83   84 2   
    87   83  102 1   
    88   85   86 1   
    89   85   95 1   
    90   85   96 1   
    91   86   87 ar  
    92   86   88 ar  
    93   87   89 ar  
    94   87   97 1   
    95   88   90 ar  
    96   88   98 1   
    97   89   91 ar  
    98   89   99 1   
    99   90   91 ar  
   100   90  100 1   
   101   91   92 1   
   102   92  101 1   
   103  102  103 1   
   104  102  110 1   
   105  103  104 1   
   106  103  106 1   
   107  103  111 1   
   108  104  105 2   
   109  104  121 1   
   110  106  107 1   
   111  106  108 1   
   112  106  112 1   
   113  107  109 1   
   114  107  113 1   
   115  107  114 1   
   116  108  115 1   
   117  108  116 1   
   118  108  117 1   
   119  109  118 1   
   120  109  119 1   
   121  109  120 1   
   122  121  122 1   
   123  121  127 1   
   124  122  123 1   
   125  122  125 1   
   126  122  128 1   
   127  123  124 2   
   128  123  132 1   
   129  125  126 1   
   130  125  129 1   
   131  125  130 1   
   132  126  131 1   
   133  132  133 1   
   134  132  137 1   
   135  133  134 1   
   136  133  136 1   
   137  133  138 1   
   138  134  135 2   
   139  134  142 1   
   140  136  139 1   
   141  136  140 1   
   142  136  141 1   
   143  142  143 1   
   144  142  147 1   
   145  143  144 1   
   146  143  146 1   
   147  143  148 1   
   148  144  145 2   
   149  144  152 1   
   150  146  149 1   
   151  146  150 1   
   152  146  151 1   
   153  152  153 1   
   154  152  161 1   
   155  153  154 1   
   156  153  156 1   
   157  153  162 1   
   158  154  155 2   
   159  154  167 1   
   160  156  157 1   
   161  156  163 1   
   162  156  164 1   
   163  157  158 1   
   164  157  165 1   
   165  157  166 1   
   166  158  159 1   
   167  158  160 1   
   168  167  168 1   
   169  167  172 1   
   170  168  169 1   
   171  168  170 1   
   172  168  171 1   
   173  174  175 1   
   174  174  176 1   
@<TRIPOS>SUBSTRUCTURE
     1 MOL         1 TEMP              0 ****  ****    0 ROOT
