@<TRIPOS>MOLECULE
MOL
  175   173     1     0     0
SMALL
resp


@<TRIPOS>ATOM
      1 C1          1.0230    3.5320    5.6930 c3        1 MOL     -0.418912
      2 C2          0.3790    3.5930    4.3240 c         1 MOL      0.808207
      3 O1          1.0380    3.9630    3.3810 o         1 MOL     -0.562053
      4 H1          1.3940    2.5240    5.8750 hc        1 MOL      0.095907
      5 H2          1.8530    4.2370    5.7360 hc        1 MOL      0.095907
      6 H3          0.2860    3.7910    6.4530 hc        1 MOL      0.095907
      7 N1         -0.8870    3.3590    4.1690 n         1 MOL     -0.738208
      8 C3         -1.6910    3.2780    2.9440 c3        1 MOL      0.507301
      9 C4         -1.6720    4.5510    2.0260 c         1 MOL      0.308249
     10 O2         -1.5280    5.7010    2.4880 o         1 MOL     -0.526110
     11 C5         -3.1530    2.8390    3.4090 c3        1 MOL     -0.554735
     12 C6         -3.9350    2.1380    2.3010 c         1 MOL      0.904781
     13 O3         -5.0770    1.7140    2.5210 o         1 MOL     -0.741242
     14 O4         -3.4310    1.9070    1.2340 o         1 MOL     -0.741242
     15 H4         -1.3720    3.2700    5.0480 hn        1 MOL      0.313011
     16 H5         -1.2560    2.4760    2.3420 h1        1 MOL      0.007126
     17 H6         -3.6770    3.7310    3.7450 hc        1 MOL      0.110295
     18 H7         -3.1120    2.1390    4.2400 hc        1 MOL      0.110295
     19 N2         -1.5990    4.2980    0.7160 n         1 MOL     -0.441316
     20 C7         -1.6610    5.3520   -0.3000 c3        1 MOL      0.397767
     21 C8         -2.7900    5.1600   -1.3650 c         1 MOL      0.313459
     22 O5         -2.8320    6.0200   -2.2790 o         1 MOL     -0.550059
     23 C9         -0.2920    5.3670   -0.9900 c3        1 MOL     -0.254369
     24 H8         -1.4580    3.3530    0.3900 hn        1 MOL      0.414114
     25 H9         -1.7610    6.3250    0.1720 h1        1 MOL      0.005403
     26 H10        -0.3060    4.5840   -1.7470 hc        1 MOL      0.058786
     27 H11        -0.1210    6.3530   -1.4370 hc        1 MOL      0.058786
     28 H12         0.4930    5.1440   -0.2620 hc        1 MOL      0.058786
     29 N3         -3.6140    4.1470   -1.2590 n         1 MOL     -0.343274
     30 C10        -4.6790    3.9120   -2.2830 c3        1 MOL      0.155256
     31 C11        -6.0130    3.0960   -1.8570 c         1 MOL      0.348115
     32 O6         -6.9480    3.0410   -2.6370 o         1 MOL     -0.526416
     33 C12        -3.8710    3.1390   -3.3150 c3        1 MOL     -0.366532
     34 C13        -3.2970    1.7890   -2.8040 c         1 MOL      0.751429
     35 O7         -2.4080    1.1850   -3.4940 o         1 MOL     -0.686973
     36 O8         -3.6720    1.3200   -1.6880 o         1 MOL     -0.686973
     37 H13        -3.3770    3.4290   -0.5860 hn        1 MOL      0.123346
     38 H14        -4.9870    4.9120   -2.6110 h1        1 MOL      0.086568
     39 H15        -2.9220    3.6290   -3.5580 hc        1 MOL      0.099048
     40 H16        -4.4400    2.8970   -4.2130 hc        1 MOL      0.099048
     41 N4         -6.0130    2.5400   -0.6720 n         1 MOL     -0.224981
     42 C14        -7.1150    1.6800   -0.1150 c3        1 MOL     -0.172427
     43 C15        -7.2050    0.3280   -0.7740 c         1 MOL      0.488525
     44 O9         -8.2990   -0.2970   -0.7040 o         1 MOL     -0.623811
     45 H17        -5.1240    2.6690   -0.1960 hn        1 MOL      0.164169
     46 H18        -8.0970    2.1600   -0.1380 h1        1 MOL      0.118695
     47 H19        -6.8070    1.5640    0.9280 h1        1 MOL      0.118695
     48 N5         -6.2020   -0.1820   -1.4920 n         1 MOL     -0.211919
     49 C16        -6.3580   -1.4340   -2.2350 c3        1 MOL     -0.031195
     50 C17        -6.3700   -2.7640   -1.4150 c         1 MOL      0.393503
     51 O10        -6.0970   -3.8540   -1.8770 o         1 MOL     -0.487083
     52 C18        -5.2840   -1.4750   -3.2830 c3        1 MOL     -0.106473
     53 C19        -3.8160   -1.8150   -2.7520 c         1 MOL      0.376940
     54 N6         -2.9130   -2.0690   -3.6640 n         1 MOL     -0.509233
     55 O11        -3.4950   -1.8020   -1.5120 o         1 MOL     -0.395912
     56 H20        -5.3170    0.2900   -1.4140 hn        1 MOL      0.326399
     57 H21        -7.2970   -1.2900   -2.7600 h1        1 MOL      0.112060
     58 H22        -5.3180   -0.4270   -3.6170 hc        1 MOL      0.033011
     59 H23        -5.4750   -2.1660   -4.1020 hc        1 MOL      0.033011
     60 H24        -3.1450   -2.0520   -4.6460 hn        1 MOL      0.314050
     61 H25        -1.9520   -2.1810   -3.3790 hn        1 MOL      0.314050
     62 N7         -6.6650   -2.6880   -0.0990 n         1 MOL     -0.220541
     63 C20        -6.6640   -3.8860    0.7650 c3        1 MOL     -0.291465
     64 C21        -5.3370   -4.4440    1.2750 c         1 MOL      0.577923
     65 O12        -5.4440   -5.2850    2.1570 o         1 MOL     -0.588062
     66 H26        -6.9000   -1.7860    0.2670 hn        1 MOL      0.228385
     67 H27        -7.2350   -4.6970    0.3050 h1        1 MOL      0.131834
     68 H28        -7.2010   -3.5350    1.6430 h1        1 MOL      0.131834
     69 N8         -4.1540   -3.9200    0.8180 n         1 MOL     -0.236512
     70 C22        -2.7520   -4.4640    1.1380 c3        1 MOL     -0.059061
     71 C23        -1.6320   -3.4530    1.3380 c         1 MOL      0.338051
     72 O13        -1.7080   -2.3360    0.7810 o         1 MOL     -0.512778
     73 C24        -2.2070   -5.3720   -0.0030 c3        1 MOL      0.420301
     74 C25        -2.8830   -6.7580    0.1150 c3        1 MOL     -0.433855
     75 O14        -2.5390   -4.8170   -1.2860 oh        1 MOL     -0.559116
     76 H29        -4.3310   -3.1080    0.2400 hn        1 MOL      0.166698
     77 H30        -2.8690   -4.9400    2.1110 h1        1 MOL      0.065354
     78 H31        -1.1210   -5.4030    0.0870 h1        1 MOL      0.004032
     79 H32        -2.1330   -3.9560   -1.3970 ho        1 MOL      0.312496
     80 H33        -3.9690   -6.7320    0.0830 hc        1 MOL      0.107725
     81 H34        -2.4010   -7.3910   -0.6280 hc        1 MOL      0.107725
     82 H35        -2.6130   -7.2040    1.0730 hc        1 MOL      0.107725
     83 N9         -0.5700   -3.7920    1.9940 n         1 MOL     -0.250877
     84 C26         0.6390   -2.9380    2.0160 c3        1 MOL     -0.238253
     85 C27         1.3780   -3.2290    0.7700 c         1 MOL      0.705195
     86 O15         1.7470   -4.3690    0.4930 o         1 MOL     -0.615902
     87 C28         1.5700   -3.2090    3.2310 c3        1 MOL      0.238520
     88 C29         0.9240   -2.8990    4.5740 c3        1 MOL     -0.081667
     89 C30         2.8600   -2.3870    3.1260 c3        1 MOL     -0.332360
     90 C31         1.4630   -3.6710    5.7690 c3        1 MOL     -0.101629
     91 H36        -0.4600   -4.7270    2.3460 hn        1 MOL      0.245482
     92 H37         0.2690   -1.9180    2.1100 h1        1 MOL      0.103709
     93 H38         1.7840   -4.2760    3.1740 hc        1 MOL     -0.019668
     94 H39        -0.1020   -3.2260    4.4480 hc        1 MOL      0.020684
     95 H40         1.0120   -1.8190    4.7330 hc        1 MOL      0.020684
     96 H41         2.5770   -1.3710    2.8510 hc        1 MOL      0.074521
     97 H42         3.5220   -2.4310    3.9920 hc        1 MOL      0.074521
     98 H43         3.4950   -2.6640    2.2960 hc        1 MOL      0.074521
     99 H44         1.7790   -4.6960    5.5540 hc        1 MOL      0.025791
    100 H45         2.3830   -3.1860    6.1010 hc        1 MOL      0.025791
    101 H46         0.7840   -3.6770    6.6170 hc        1 MOL      0.025791
    102 N10         1.5090   -2.1530    0.0050 n         1 MOL     -0.419312
    103 C32         2.4280   -2.0790   -1.1760 c3        1 MOL     -0.009567
    104 C33         3.8760   -1.6470   -0.8160 c         1 MOL      0.302008
    105 O16         4.0950   -1.0120    0.1620 o         1 MOL     -0.109789
    106 C34         1.8000   -1.0960   -2.1940 c3        1 MOL     -0.494511
    107 C35         0.3420   -1.4500   -2.5050 c         1 MOL      0.919314
    108 O17        -0.5390   -0.9270   -1.8470 o         1 MOL     -0.737334
    109 O18         0.0640   -2.1480   -3.5130 o         1 MOL     -0.737334
    110 H47         1.0470   -1.3320    0.3710 hn        1 MOL      0.342925
    111 H48         2.4540   -3.1030   -1.5360 h1        1 MOL      0.094867
    112 H49         2.3830   -1.0510   -3.1110 hc        1 MOL      0.153293
    113 H50         1.8290   -0.1000   -1.7380 hc        1 MOL      0.153293
    114 N11         4.8850   -1.8350   -1.6270 n         1 MOL     -0.451763
    115 C36         6.2670   -1.4970   -1.2210 c3        1 MOL      0.187969
    116 C37         6.6240    0.0180   -1.2810 c         1 MOL      0.373906
    117 O19         7.3500    0.4910   -0.4350 o         1 MOL     -0.467031
    118 C38         7.2170   -2.3520   -2.0040 c3        1 MOL     -0.422595
    119 C39         8.5980   -1.9840   -1.7230 ca        1 MOL      0.331372
    120 C40         9.2390   -2.4630   -0.5560 ca        1 MOL     -0.337752
    121 C41         9.3120   -1.1380   -2.6290 ca        1 MOL     -0.337752
    122 C42        10.5610   -2.0840   -0.2200 ca        1 MOL      0.000026
    123 C43        10.6480   -0.7660   -2.2870 ca        1 MOL      0.000026
    124 C44        11.2700   -1.2600   -1.1250 ca        1 MOL     -0.214300
    125 H51         4.7550   -2.3180   -2.5070 hn        1 MOL      0.304358
    126 H52         6.3700   -1.8030   -0.1790 h1        1 MOL      0.089678
    127 H53         6.8880   -2.2630   -3.0300 hc        1 MOL      0.118490
    128 H54         7.1810   -3.3850   -1.6520 hc        1 MOL      0.118490
    129 H55         8.6690   -3.0150    0.1790 ha        1 MOL      0.160027
    130 H56         8.8090   -0.6530   -3.4540 ha        1 MOL      0.160027
    131 H57        11.0240   -2.4180    0.6930 ha        1 MOL      0.096017
    132 H58        11.1940   -0.0890   -2.9190 ha        1 MOL      0.096017
    133 H59        12.2790   -0.9170   -0.9390 ha        1 MOL      0.117448
    134 N12         5.9690    0.8110   -2.1360 n         1 MOL     -0.039527
    135 C45         5.9800    2.2060   -2.0280 c3        1 MOL      0.048548
    136 C46         5.3890    2.7650   -0.7500 c         1 MOL      0.256598
    137 O20         5.7290    3.8850   -0.4250 o         1 MOL     -0.515388
    138 C47         5.1860    2.7490   -3.2470 c3        1 MOL     -0.168035
    139 C48         5.4750    1.6540   -4.2820 c3        1 MOL      0.019361
    140 C49         5.4010    0.3950   -3.3970 c3        1 MOL     -0.101801
    141 H60         7.0240    2.5160   -1.9620 h1        1 MOL      0.064019
    142 H61         4.1180    2.7120   -3.0410 hc        1 MOL      0.082119
    143 H62         5.5550    3.7320   -3.5180 hc        1 MOL      0.082119
    144 H63         4.7650    1.5090   -5.0940 hc        1 MOL      0.017068
    145 H64         6.4410    1.8620   -4.7460 hc        1 MOL      0.017068
    146 H65         4.3500    0.1280   -3.3020 h1        1 MOL      0.053503
    147 H66         5.8320   -0.4740   -3.9050 h1        1 MOL      0.053503
    148 N13         4.7180    1.9480    0.0250 n         1 MOL      0.209663
    149 C50         4.2130    2.2750    1.3160 c3        1 MOL     -0.191850
    150 C51         5.1410    1.6350    2.3850 c         1 MOL      0.484025
    151 O21         5.5590    2.3240    3.3310 o         1 MOL     -0.551907
    152 C52         2.7930    1.7780    1.4910 c3        1 MOL      0.186574
    153 C53         1.8590    2.1090    0.2860 c3        1 MOL      0.084546
    154 C54         0.5470    1.4250    0.3790 c         1 MOL      0.377871
    155 O22        -0.4000    1.8160   -0.3250 o         1 MOL     -0.671228
    156 O23         0.2900    0.5500    1.2320 o         1 MOL     -0.671228
    157 H67         4.6850    0.9630   -0.1990 hn        1 MOL     -0.140991
    158 H68         4.3070    3.3560    1.4280 h1        1 MOL      0.090899
    159 H69         2.4210    2.1720    2.4380 hc        1 MOL     -0.038637
    160 H70         2.8750    0.6950    1.5580 hc        1 MOL     -0.038637
    161 H71         2.3500    1.9010   -0.6590 hc        1 MOL     -0.000641
    162 H72         1.7740    3.1980    0.2320 hc        1 MOL     -0.000641
    163 N14         5.5540    0.3650    2.2250 n         1 MOL     -0.072570
    164 C55         6.4900   -0.2960    3.1080 c3        1 MOL     -0.275513
    165 H73         6.4080   -1.3760    2.9790 h1        1 MOL      0.098548
    166 H74         7.5040    0.0230    2.8690 h1        1 MOL      0.098548
    167 H75         6.2610   -0.0360    4.1420 h1        1 MOL      0.098548
    168 H76         5.0290   -0.1800    1.5480 hn        1 MOL      0.009800
    169 Ca1        -2.1650    0.0330   -0.0830 Ca        1 MOL      1.665702
    170 O24        -2.0000   -0.2620    2.9780 oh        1 MOL     -0.699666
    171 H77        -1.0770   -0.0260    2.9990 ho        1 MOL      0.346669
    172 H78        -2.3130   -0.1070    3.8810 ho        1 MOL      0.346669
    173 O25        -4.5400   -0.6850    1.0610 oh        1 MOL     -0.699666
    174 H79        -4.5400   -1.0680    1.9350 ho        1 MOL      0.346669
    175 H80        -5.0540    0.1210    1.1470 ho        1 MOL      0.346669
@<TRIPOS>BOND
     1    1    2 1   
     2    1    4 1   
     3    1    5 1   
     4    1    6 1   
     5    2    3 2   
     6    2    7 1   
     7    7    8 1   
     8    7   15 1   
     9    8    9 1   
    10    8   11 1   
    11    8   16 1   
    12    9   10 2   
    13    9   19 1   
    14   11   12 1   
    15   11   17 1   
    16   11   18 1   
    17   12   13 1   
    18   12   14 1   
    19   19   20 1   
    20   19   24 1   
    21   20   21 1   
    22   20   23 1   
    23   20   25 1   
    24   21   22 2   
    25   21   29 1   
    26   23   26 1   
    27   23   27 1   
    28   23   28 1   
    29   29   30 1   
    30   29   37 1   
    31   30   31 1   
    32   30   33 1   
    33   30   38 1   
    34   31   32 2   
    35   31   41 1   
    36   33   34 1   
    37   33   39 1   
    38   33   40 1   
    39   34   35 1   
    40   34   36 1   
    41   41   42 1   
    42   41   45 1   
    43   42   43 1   
    44   42   46 1   
    45   42   47 1   
    46   43   44 2   
    47   43   48 1   
    48   48   49 1   
    49   48   56 1   
    50   49   50 1   
    51   49   52 1   
    52   49   57 1   
    53   50   51 2   
    54   50   62 1   
    55   52   53 1   
    56   52   58 1   
    57   52   59 1   
    58   53   54 1   
    59   53   55 2   
    60   54   60 1   
    61   54   61 1   
    62   62   63 1   
    63   62   66 1   
    64   63   64 1   
    65   63   67 1   
    66   63   68 1   
    67   64   65 2   
    68   64   69 1   
    69   69   70 1   
    70   69   76 1   
    71   70   71 1   
    72   70   73 1   
    73   70   77 1   
    74   71   72 2   
    75   71   83 1   
    76   73   74 1   
    77   73   75 1   
    78   73   78 1   
    79   74   80 1   
    80   74   81 1   
    81   74   82 1   
    82   75   79 1   
    83   83   84 1   
    84   83   91 1   
    85   84   85 1   
    86   84   87 1   
    87   84   92 1   
    88   85   86 2   
    89   85  102 1   
    90   87   88 1   
    91   87   89 1   
    92   87   93 1   
    93   88   90 1   
    94   88   94 1   
    95   88   95 1   
    96   89   96 1   
    97   89   97 1   
    98   89   98 1   
    99   90   99 1   
   100   90  100 1   
   101   90  101 1   
   102  102  103 1   
   103  102  110 1   
   104  103  104 1   
   105  103  106 1   
   106  103  111 1   
   107  104  105 2   
   108  104  114 1   
   109  106  107 1   
   110  106  112 1   
   111  106  113 1   
   112  107  108 1   
   113  107  109 1   
   114  114  115 1   
   115  114  125 1   
   116  115  116 1   
   117  115  118 1   
   118  115  126 1   
   119  116  117 2   
   120  116  134 1   
   121  118  119 1   
   122  118  127 1   
   123  118  128 1   
   124  119  120 ar  
   125  119  121 ar  
   126  120  122 ar  
   127  120  129 1   
   128  121  123 ar  
   129  121  130 1   
   130  122  124 ar  
   131  122  131 1   
   132  123  124 ar  
   133  123  132 1   
   134  124  133 1   
   135  134  135 1   
   136  134  140 1   
   137  135  136 1   
   138  135  138 1   
   139  135  141 1   
   140  136  137 2   
   141  136  148 1   
   142  138  139 1   
   143  138  142 1   
   144  138  143 1   
   145  139  140 1   
   146  139  144 1   
   147  139  145 1   
   148  140  146 1   
   149  140  147 1   
   150  148  149 1   
   151  148  157 1   
   152  149  150 1   
   153  149  152 1   
   154  149  158 1   
   155  150  151 2   
   156  150  163 1   
   157  152  153 1   
   158  152  159 1   
   159  152  160 1   
   160  153  154 1   
   161  153  161 1   
   162  153  162 1   
   163  154  155 1   
   164  154  156 1   
   165  163  164 1   
   166  163  168 1   
   167  164  165 1   
   168  164  166 1   
   169  164  167 1   
   170  170  171 1   
   171  170  172 1   
   172  173  174 1   
   173  173  175 1   
@<TRIPOS>SUBSTRUCTURE
     1 MOL         1 TEMP              0 ****  ****    0 ROOT
