@<TRIPOS>MOLECULE
MOL
  189   185     1     0     0
SMALL
resp


@<TRIPOS>ATOM
      1 C1          0.5050   -4.1760    6.1730 c3        1 MOL     -0.446652
      2 C2          0.8720   -3.7100    4.7680 c         1 MOL      0.684672
      3 O1          0.9950   -2.4470    4.6290 o         1 MOL     -0.591789
      4 H1          0.0360   -3.3550    6.7170 hc        1 MOL      0.116047
      5 H2         -0.1920   -5.0120    6.1090 hc        1 MOL      0.116047
      6 H3          1.4060   -4.4910    6.7000 hc        1 MOL      0.116047
      7 N1          1.1350   -4.6020    3.7840 n         1 MOL     -0.607152
      8 C3          1.5740   -4.1570    2.4310 c3        1 MOL      0.227383
      9 C4          0.9290   -5.0240    1.3310 c         1 MOL      0.422038
     10 O2          0.3060   -6.0670    1.5940 o         1 MOL     -0.573410
     11 C5          3.0660   -4.2800    2.3600 c3        1 MOL     -0.168646
     12 C6          3.7930   -3.7260    1.0790 c         1 MOL      0.586710
     13 O3          4.9920   -4.1210    0.9370 o         1 MOL     -0.616680
     14 O4          3.2560   -2.8000    0.3430 o         1 MOL     -0.616680
     15 H4          1.1220   -5.5820    4.0240 hn        1 MOL      0.328357
     16 H5          1.3820   -3.0900    2.3350 h1        1 MOL      0.091654
     17 H6          3.4470   -5.3060    2.3690 hc        1 MOL      0.038379
     18 H7          3.5750   -3.9060    3.2500 hc        1 MOL      0.038379
     19 N2          1.0990   -4.6060    0.0520 n         1 MOL     -0.094989
     20 C7          0.8250   -5.2790   -1.1770 c3        1 MOL     -0.041694
     21 C8          1.9830   -5.1670   -2.1240 c         1 MOL      0.525180
     22 O5          2.5690   -6.1060   -2.5570 o         1 MOL     -0.592691
     23 C9         -0.5440   -4.8430   -1.7320 c3        1 MOL      0.414549
     24 C10        -1.6710   -5.1000   -0.7370 c3        1 MOL      0.045966
     25 C11        -0.8410   -5.4920   -3.1190 c3        1 MOL     -0.318356
     26 C12        -3.1350   -4.8300   -1.1800 c3        1 MOL     -0.429819
     27 H8          1.5690   -3.7190   -0.0500 hn        1 MOL     -0.053829
     28 H9          0.7220   -6.3390   -0.9480 h1        1 MOL      0.015025
     29 H10        -0.5380   -3.7480   -1.7970 hc        1 MOL     -0.105448
     30 H11        -1.5720   -4.4350    0.1180 hc        1 MOL     -0.012632
     31 H12        -1.5410   -6.1290   -0.4000 hc        1 MOL     -0.012632
     32 H13        -1.8920   -5.2760   -3.3220 hc        1 MOL      0.046120
     33 H14        -0.1610   -5.1150   -3.8920 hc        1 MOL      0.046120
     34 H15        -0.6310   -6.5640   -3.0360 hc        1 MOL      0.046120
     35 H16        -3.4790   -5.3290   -2.0880 hc        1 MOL      0.113049
     36 H17        -3.7380   -4.9270   -0.2800 hc        1 MOL      0.113049
     37 H18        -3.1630   -3.7610   -1.3880 hc        1 MOL      0.113049
     38 N3          2.2570   -3.9130   -2.5130 n         1 MOL     -0.157082
     39 C13         2.9750   -3.4720   -3.6960 c3        1 MOL     -0.048756
     40 C14         4.4290   -3.0760   -3.3680 c         1 MOL      0.400327
     41 O6          5.1880   -2.7360   -4.3000 o         1 MOL     -0.546181
     42 C15         2.1750   -2.4240   -4.3900 c3        1 MOL     -0.209468
     43 C16         1.9050   -1.2280   -3.4970 c         1 MOL      0.793594
     44 O7          2.2210   -1.2550   -2.2590 o         1 MOL     -0.705080
     45 O8          1.2110   -0.2950   -3.9670 o         1 MOL     -0.705080
     46 H19         1.7410   -3.1380   -2.1410 hn        1 MOL      0.200714
     47 H20         3.0180   -4.2360   -4.4740 h1        1 MOL      0.084619
     48 H21         1.1770   -2.8010   -4.6440 hc        1 MOL      0.056004
     49 H22         2.6710   -1.9830   -5.2550 hc        1 MOL      0.056004
     50 N4          4.9050   -3.0360   -2.0740 n         1 MOL     -0.212952
     51 C17         6.3160   -2.9840   -1.6270 c3        1 MOL     -0.187258
     52 C18         7.0470   -1.6440   -1.7290 c         1 MOL      0.382344
     53 O9          8.2870   -1.6070   -1.7110 o         1 MOL     -0.583800
     54 H23         4.2230   -3.1990   -1.3380 hn        1 MOL      0.163654
     55 H24         6.8550   -3.6670   -2.2870 h1        1 MOL      0.124788
     56 H25         6.4770   -3.5210   -0.6960 h1        1 MOL      0.124788
     57 N5          6.3320   -0.5760   -1.9670 n         1 MOL     -0.081928
     58 C19         6.8750    0.7930   -2.2110 c3        1 MOL     -0.082392
     59 C20         7.3120    1.5750   -1.0320 c         1 MOL      0.351000
     60 O10         8.2070    2.4350   -1.1970 o         1 MOL     -0.545970
     61 C21         5.8020    1.7060   -2.9060 c3        1 MOL     -0.158584
     62 C22         4.4660    1.8370   -2.1720 c         1 MOL      0.620438
     63 O11         4.1890    1.1140   -1.1790 o         1 MOL     -0.663166
     64 O12         3.5650    2.6420   -2.6050 o         1 MOL     -0.663166
     65 H26         5.3350   -0.7080   -1.9500 hn        1 MOL      0.147806
     66 H27         7.6750    0.7420   -2.9450 h1        1 MOL      0.121827
     67 H28         5.5700    1.5300   -3.9540 hc        1 MOL      0.070442
     68 H29         6.2740    2.6860   -3.0050 hc        1 MOL      0.070442
     69 N6          6.6740    1.3920    0.1210 n         1 MOL      0.002190
     70 C23         7.0650    2.2110    1.2680 c3        1 MOL     -0.226487
     71 C24         6.1100    3.3030    1.6580 c         1 MOL      0.633955
     72 O13         6.3790    4.1220    2.5620 o         1 MOL     -0.620921
     73 H30         6.0200    0.6130    0.1440 hn        1 MOL      0.136074
     74 H31         7.9490    2.8270    1.0580 h1        1 MOL      0.078588
     75 H32         7.1760    1.5060    2.0960 h1        1 MOL      0.078588
     76 N7          4.9820    3.3640    0.9810 n         1 MOL     -0.402343
     77 C25         3.8390    4.1100    1.4320 c3        1 MOL      0.055048
     78 C26         2.5780    3.2760    1.5880 c         1 MOL      0.460169
     79 O14         2.5750    2.0860    1.2460 o         1 MOL     -0.562071
     80 C27         3.5450    5.2280    0.3700 c3        1 MOL     -0.290207
     81 C28         4.6970    6.2200    0.1240 c3        1 MOL     -0.086436
     82 C29         4.2290    7.5440   -0.6000 c         1 MOL      0.641068
     83 N8          5.2120    8.4340   -0.6830 n         1 MOL     -0.819624
     84 O15         3.1370    7.7100   -1.0710 o         1 MOL     -0.534457
     85 H33         4.7900    2.6690    0.2840 hn        1 MOL      0.295618
     86 H34         4.0150    4.5430    2.4200 h1        1 MOL      0.063379
     87 H35         2.6940    5.8110    0.7260 hc        1 MOL      0.110942
     88 H36         3.3370    4.7990   -0.6150 hc        1 MOL      0.110942
     89 H37         5.5770    5.8160   -0.3760 hc        1 MOL      0.057449
     90 H38         4.9970    6.4100    1.1560 hc        1 MOL      0.057449
     91 H39         6.0680    8.3000   -0.1820 hn        1 MOL      0.355613
     92 H40         4.9630    9.2560   -1.2190 hn        1 MOL      0.355613
     93 N9          1.4650    3.8690    2.0510 n         1 MOL     -0.353208
     94 C30         0.2890    3.0460    2.4030 c3        1 MOL     -0.049519
     95 C31        -0.8470    3.5030    1.5030 c         1 MOL      0.363092
     96 O16        -1.2230    4.6790    1.4920 o         1 MOL     -0.567609
     97 C32         0.0300    3.1050    3.9130 c3        1 MOL      0.474699
     98 C33        -1.1140    2.2450    4.4790 c3        1 MOL     -0.385427
     99 C34         1.2720    2.9080    4.7310 c3        1 MOL     -0.385427
    100 H41         1.5140    4.8430    2.3060 hn        1 MOL      0.273571
    101 H42         0.4970    2.0000    2.2020 h1        1 MOL      0.026206
    102 H43        -0.3640    4.0970    4.1110 hc        1 MOL     -0.084458
    103 H44        -0.8540    1.1900    4.3660 hc        1 MOL      0.077928
    104 H45        -1.2460    2.5540    5.5210 hc        1 MOL      0.077928
    105 H46        -2.0130    2.4440    3.9000 hc        1 MOL      0.077928
    106 H47         1.8710    2.0430    4.4540 hc        1 MOL      0.077928
    107 H48         1.8100    3.8520    4.7600 hc        1 MOL      0.077928
    108 H49         0.9200    2.6100    5.7220 hc        1 MOL      0.077928
    109 N10        -1.4760    2.5570    0.8480 n         1 MOL     -0.041271
    110 C35        -2.5890    2.6670   -0.0230 c3        1 MOL      0.100468
    111 C36        -3.9030    2.3810    0.7150 c         1 MOL      0.110239
    112 O17        -4.0500    1.9290    1.8320 o         1 MOL     -0.331103
    113 C37        -2.3580    1.7350   -1.1810 c3        1 MOL     -0.218833
    114 C38        -3.4740    1.6230   -2.2570 c         1 MOL      0.678946
    115 N11        -3.5600    2.6800   -3.0270 n         1 MOL     -0.752696
    116 O18        -4.3110    0.7530   -2.3340 o         1 MOL     -0.561221
    117 H50        -0.9680    1.6910    0.7120 hn        1 MOL      0.198435
    118 H51        -2.5670    3.6970   -0.3800 h1        1 MOL      0.025245
    119 H52        -2.1800    0.7190   -0.8230 hc        1 MOL      0.085162
    120 H53        -1.3900    1.9800   -1.6340 hc        1 MOL      0.085162
    121 H54        -2.9480    3.4830   -2.9780 hn        1 MOL      0.338952
    122 H55        -4.2390    2.6950   -3.7670 hn        1 MOL      0.338952
    123 N12        -4.9820    2.7190    0.1440 n         1 MOL     -0.010406
    124 C39        -6.4230    2.4950    0.6150 c3        1 MOL      0.124485
    125 C40        -6.8430    1.0310    0.7550 c         1 MOL      0.349789
    126 O19        -7.7430    0.7950    1.5130 o         1 MOL     -0.556498
    127 C41        -7.2820    3.3920   -0.3050 c3        1 MOL     -0.110173
    128 C42        -7.1680    3.1490   -1.7310 ca        1 MOL      0.220043
    129 C43        -6.6620    4.1100   -2.6300 ca        1 MOL     -0.266429
    130 C44        -7.4990    1.9570   -2.3310 ca        1 MOL     -0.266429
    131 C45        -6.4560    3.9120   -3.9910 ca        1 MOL     -0.202919
    132 C46        -7.3420    1.6620   -3.7090 ca        1 MOL     -0.202919
    133 C47        -6.8700    2.6620   -4.5690 ca        1 MOL      0.346211
    134 O20        -6.7110    2.4170   -5.9270 oh        1 MOL     -0.581159
    135 H56        -4.9070    3.4810   -0.5170 hn        1 MOL      0.109789
    136 H57        -6.3950    2.9410    1.6060 h1        1 MOL      0.013469
    137 H58        -7.0300    4.4440   -0.1500 hc        1 MOL      0.021726
    138 H59        -8.3360    3.2780   -0.0390 hc        1 MOL      0.021726
    139 H60        -6.3500    5.0500   -2.1990 ha        1 MOL      0.121072
    140 H61        -7.9410    1.1700   -1.7290 ha        1 MOL      0.121072
    141 H62        -6.0090    4.7070   -4.5730 ha        1 MOL      0.106599
    142 H63        -7.6350    0.6890   -4.0920 ha        1 MOL      0.106599
    143 H64        -6.9070    1.4920   -6.0980 ho        1 MOL      0.415008
    144 N13        -6.1430    0.1020    0.0910 n         1 MOL      0.342977
    145 C48        -6.2900   -1.3910    0.2490 c3        1 MOL     -0.497585
    146 C49        -5.5060   -1.9590    1.4550 c         1 MOL      0.619921
    147 O21        -5.7510   -3.0750    1.8800 o         1 MOL     -0.549236
    148 C50        -6.0320   -2.1240   -1.1510 c3        1 MOL      0.441140
    149 C51        -6.8750   -1.5460   -2.2780 c3        1 MOL     -0.384077
    150 C52        -8.3240   -1.4810   -2.0030 c         1 MOL      0.819985
    151 O22        -8.8100   -2.0340   -1.0170 o         1 MOL     -0.738881
    152 O23        -9.1250   -0.9460   -2.7920 o         1 MOL     -0.738881
    153 H65        -5.4360    0.3820   -0.5670 hn        1 MOL      0.062519
    154 H66        -7.3360   -1.5750    0.5150 h1        1 MOL      0.174285
    155 H67        -6.1570   -3.1800   -0.9230 hc        1 MOL     -0.081266
    156 H68        -4.9770   -2.0230   -1.3870 hc        1 MOL     -0.081266
    157 H69        -6.7150   -2.1850   -3.1440 hc        1 MOL      0.050411
    158 H70        -6.5010   -0.5500   -2.5100 hc        1 MOL      0.050411
    159 N14        -4.5460   -1.1720    1.9120 n         1 MOL     -0.411870
    160 C53        -3.5880   -1.5600    3.0310 c3        1 MOL      0.066411
    161 C54        -3.8120   -0.9230    4.4080 c         1 MOL      0.423252
    162 O24        -3.8140   -1.5810    5.4500 o         1 MOL     -0.540241
    163 C55        -2.1870   -1.1410    2.5640 c3        1 MOL     -0.112984
    164 C56        -1.5260   -1.9290    1.4080 c3        1 MOL      0.072845
    165 C57        -0.3570   -1.1800    0.8540 c         1 MOL      0.537595
    166 O25         0.2420   -1.5550   -0.1730 o         1 MOL     -0.654711
    167 O26         0.0890   -0.1270    1.3400 o         1 MOL     -0.654711
    168 H71        -4.4710   -0.2370    1.5270 hn        1 MOL      0.071757
    169 H72        -3.5790   -2.6380    3.1790 h1        1 MOL      0.056366
    170 H73        -1.5410   -1.1860    3.4500 hc        1 MOL      0.071068
    171 H74        -2.2210   -0.0880    2.2690 hc        1 MOL      0.071068
    172 H75        -2.2270   -2.0030    0.5750 hc        1 MOL      0.028180
    173 H76        -1.2350   -2.9420    1.6620 hc        1 MOL      0.028180
    174 N15        -4.3140    0.3480    4.4270 n         1 MOL     -0.127276
    175 C58        -4.5240    1.1550    5.6740 c3        1 MOL     -0.093684
    176 H77        -4.3330    2.2070    5.4610 h1        1 MOL      0.053877
    177 H78        -5.5520    1.0360    6.0170 h1        1 MOL      0.053877
    178 H79        -3.8400    0.8110    6.4500 h1        1 MOL      0.053877
    179 H80        -4.2740    0.8200    3.5380 hn        1 MOL      0.061788
    180 Ca1         2.5450   -0.3310    0.0960 Ca        1 MOL      1.737206
    181 O27         2.7070   -1.0070    2.8190 oh        1 MOL     -0.860362
    182 H81         3.5820   -1.0470    3.2130 ho        1 MOL      0.408878
    183 H82         2.1020   -1.0480    3.5680 ho        1 MOL      0.408878
    184 O28         5.0640   -0.7780    1.1190 oh        1 MOL     -0.860362
    185 H83         5.1530   -1.7290    1.0340 ho        1 MOL      0.408878
    186 H84         5.4240   -0.5830    1.9830 ho        1 MOL      0.408878
    187 O29         1.2220    1.4630   -1.6350 oh        1 MOL     -0.860362
    188 H85         1.7570    2.2200   -1.8650 ho        1 MOL      0.408878
    189 H86         1.2420    0.9100   -2.4140 ho        1 MOL      0.408878
@<TRIPOS>BOND
     1    1    2 1   
     2    1    4 1   
     3    1    5 1   
     4    1    6 1   
     5    2    3 2   
     6    2    7 1   
     7    7    8 1   
     8    7   15 1   
     9    8    9 1   
    10    8   11 1   
    11    8   16 1   
    12    9   10 2   
    13    9   19 1   
    14   11   12 1   
    15   11   17 1   
    16   11   18 1   
    17   12   13 1   
    18   12   14 1   
    19   19   20 1   
    20   19   27 1   
    21   20   21 1   
    22   20   23 1   
    23   20   28 1   
    24   21   22 2   
    25   21   38 1   
    26   23   24 1   
    27   23   25 1   
    28   23   29 1   
    29   24   26 1   
    30   24   30 1   
    31   24   31 1   
    32   25   32 1   
    33   25   33 1   
    34   25   34 1   
    35   26   35 1   
    36   26   36 1   
    37   26   37 1   
    38   38   39 1   
    39   38   46 1   
    40   39   40 1   
    41   39   42 1   
    42   39   47 1   
    43   40   41 2   
    44   40   50 1   
    45   42   43 1   
    46   42   48 1   
    47   42   49 1   
    48   43   44 1   
    49   43   45 1   
    50   50   51 1   
    51   50   54 1   
    52   51   52 1   
    53   51   55 1   
    54   51   56 1   
    55   52   53 2   
    56   52   57 1   
    57   57   58 1   
    58   57   65 1   
    59   58   59 1   
    60   58   61 1   
    61   58   66 1   
    62   59   60 2   
    63   59   69 1   
    64   61   62 1   
    65   61   67 1   
    66   61   68 1   
    67   62   63 1   
    68   62   64 1   
    69   69   70 1   
    70   69   73 1   
    71   70   71 1   
    72   70   74 1   
    73   70   75 1   
    74   71   72 2   
    75   71   76 1   
    76   76   77 1   
    77   76   85 1   
    78   77   78 1   
    79   77   80 1   
    80   77   86 1   
    81   78   79 2   
    82   78   93 1   
    83   80   81 1   
    84   80   87 1   
    85   80   88 1   
    86   81   82 1   
    87   81   89 1   
    88   81   90 1   
    89   82   83 1   
    90   82   84 2   
    91   83   91 1   
    92   83   92 1   
    93   93   94 1   
    94   93  100 1   
    95   94   95 1   
    96   94   97 1   
    97   94  101 1   
    98   95   96 2   
    99   95  109 1   
   100   97   98 1   
   101   97   99 1   
   102   97  102 1   
   103   98  103 1   
   104   98  104 1   
   105   98  105 1   
   106   99  106 1   
   107   99  107 1   
   108   99  108 1   
   109  109  110 1   
   110  109  117 1   
   111  110  111 1   
   112  110  113 1   
   113  110  118 1   
   114  111  112 2   
   115  111  123 1   
   116  113  114 1   
   117  113  119 1   
   118  113  120 1   
   119  114  115 1   
   120  114  116 2   
   121  115  121 1   
   122  115  122 1   
   123  123  124 1   
   124  123  135 1   
   125  124  125 1   
   126  124  127 1   
   127  124  136 1   
   128  125  126 2   
   129  125  144 1   
   130  127  128 1   
   131  127  137 1   
   132  127  138 1   
   133  128  129 ar  
   134  128  130 ar  
   135  129  131 ar  
   136  129  139 1   
   137  130  132 ar  
   138  130  140 1   
   139  131  133 ar  
   140  131  141 1   
   141  132  133 ar  
   142  132  142 1   
   143  133  134 1   
   144  134  143 1   
   145  144  145 1   
   146  144  153 1   
   147  145  146 1   
   148  145  148 1   
   149  145  154 1   
   150  146  147 2   
   151  146  159 1   
   152  148  149 1   
   153  148  155 1   
   154  148  156 1   
   155  149  150 1   
   156  149  157 1   
   157  149  158 1   
   158  150  151 1   
   159  150  152 1   
   160  159  160 1   
   161  159  168 1   
   162  160  161 1   
   163  160  163 1   
   164  160  169 1   
   165  161  162 2   
   166  161  174 1   
   167  163  164 1   
   168  163  170 1   
   169  163  171 1   
   170  164  165 1   
   171  164  172 1   
   172  164  173 1   
   173  165  166 1   
   174  165  167 1   
   175  174  175 1   
   176  174  179 1   
   177  175  176 1   
   178  175  177 1   
   179  175  178 1   
   180  181  182 1   
   181  181  183 1   
   182  184  185 1   
   183  184  186 1   
   184  187  188 1   
   185  187  189 1   
@<TRIPOS>SUBSTRUCTURE
     1 MOL         1 TEMP              0 ****  ****    0 ROOT
