@<TRIPOS>MOLECULE
MOL
  182   178     1     0     0
SMALL
resp


@<TRIPOS>ATOM
      1 C1          2.1730    2.6710    6.1270 c3        1 MOL     -0.371732
      2 C2          1.5000    2.5670    4.7490 c         1 MOL      0.760006
      3 O1          2.2350    2.3540    3.8110 o         1 MOL     -0.596522
      4 H1          2.8910    3.4910    6.1180 hc        1 MOL      0.093331
      5 H2          1.4170    2.8580    6.8880 hc        1 MOL      0.093331
      6 H3          2.6910    1.7370    6.3500 hc        1 MOL      0.093331
      7 N1          0.1650    2.7570    4.6220 n         1 MOL     -0.661110
      8 C3         -0.5180    2.6010    3.2390 c3        1 MOL      0.134012
      9 C4         -0.5780    3.8760    2.3910 c         1 MOL      0.616838
     10 O2         -1.2730    4.7880    2.6900 o         1 MOL     -0.558490
     11 C5         -1.8480    1.8070    3.3510 c3        1 MOL     -0.057247
     12 C6         -2.6160    1.3180    2.1620 c         1 MOL      0.640784
     13 O3         -2.1850    1.4850    1.0060 o         1 MOL     -0.727592
     14 O4         -3.7800    0.8310    2.3600 o         1 MOL     -0.727592
     15 H4         -0.3690    2.8760    5.4800 hn        1 MOL      0.340674
     16 H5          0.0960    1.8930    2.6700 h1        1 MOL     -0.019939
     17 H6         -2.5520    2.3740    3.9590 hc        1 MOL      0.028355
     18 H7         -1.6150    0.9660    4.0080 hc        1 MOL      0.028355
     19 N2          0.1420    3.8450    1.2680 n         1 MOL     -0.426368
     20 C7          0.3740    5.0920    0.5020 c3        1 MOL      0.019666
     21 C8         -0.9150    5.6660   -0.1010 c         1 MOL      0.560469
     22 O5         -1.0320    6.8830   -0.1010 o         1 MOL     -0.582554
     23 C9          1.3680    4.7680   -0.6200 c3        1 MOL     -0.091115
     24 C10         1.8220    6.1070   -1.3230 c3        1 MOL     -0.374259
     25 C11         2.7420    5.7760   -2.5280 c3        1 MOL     -0.054219
     26 C12         3.1210    7.0870   -3.2100 c3        1 MOL      0.170140
     27 N3          4.3060    6.9700   -4.0770 n4        1 MOL     -0.549697
     28 H8          0.4120    2.9100    0.9810 hn        1 MOL      0.262829
     29 H9          0.7700    5.8540    1.1740 h1        1 MOL      0.096725
     30 H10         0.8090    4.1730   -1.3350 hc        1 MOL      0.112087
     31 H11         2.1770    4.1960   -0.1530 hc        1 MOL      0.112087
     32 H12         2.4350    6.7140   -0.6610 hc        1 MOL      0.143615
     33 H13         0.9390    6.5890   -1.7250 hc        1 MOL      0.143615
     34 H14         2.4850    4.9940   -3.2540 hc        1 MOL      0.047294
     35 H15         3.7200    5.4550   -2.1450 hc        1 MOL      0.047294
     36 H16         3.3050    7.8360   -2.4490 hx        1 MOL      0.057079
     37 H17         2.3580    7.3460   -3.9440 hx        1 MOL      0.057079
     38 H18         4.0810    6.4330   -4.8970 hn        1 MOL      0.377344
     39 H19         4.4820    7.9390   -4.3000 hn        1 MOL      0.377344
     40 H20         5.0790    6.6150   -3.5220 hn        1 MOL      0.377344
     41 N4         -1.9050    4.9100   -0.6790 n         1 MOL     -0.314457
     42 C13        -3.2680    5.2790   -1.1590 c3        1 MOL      0.014151
     43 C14        -4.3530    4.7190   -0.3070 c         1 MOL      0.402774
     44 O6         -5.4900    5.1690   -0.4070 o         1 MOL     -0.562797
     45 C15        -3.5040    4.6980   -2.5980 c3        1 MOL     -0.311760
     46 C16        -3.3020    3.1770   -2.7790 c         1 MOL      0.830727
     47 O7         -2.7080    2.5510   -1.9040 o         1 MOL     -0.746823
     48 O8         -3.9040    2.6940   -3.7770 o         1 MOL     -0.746823
     49 H21        -1.7390    3.9170   -0.7140 hn        1 MOL      0.173040
     50 H22        -3.3650    6.3450   -1.3760 h1        1 MOL      0.112072
     51 H23        -2.8110    5.1530   -3.3090 hc        1 MOL      0.090278
     52 H24        -4.5090    5.0030   -2.9090 hc        1 MOL      0.090278
     53 N5         -4.0790    3.9150    0.6640 n         1 MOL      0.061878
     54 C17        -5.0170    3.5490    1.6920 c3        1 MOL     -0.424137
     55 C18        -5.9620    2.3790    1.3190 c         1 MOL      0.680408
     56 O9         -6.9890    2.2480    2.0060 o         1 MOL     -0.573053
     57 H25        -3.1510    3.5230    0.7910 hn        1 MOL      0.074812
     58 H26        -5.4970    4.4950    1.9200 h1        1 MOL      0.165621
     59 H27        -4.5400    3.0660    2.5420 h1        1 MOL      0.165621
     60 N6         -5.6460    1.6260    0.2320 n         1 MOL     -0.345935
     61 C19        -6.4970    0.6400   -0.3880 c3        1 MOL     -0.101511
     62 C20        -6.5690   -0.7640    0.3810 c         1 MOL      0.460147
     63 O10        -7.2680   -1.5840   -0.1590 o         1 MOL     -0.515636
     64 C21        -6.1670    0.3190   -1.8930 c3        1 MOL     -0.160395
     65 C22        -4.9720   -0.5900   -2.0340 c         1 MOL      0.612857
     66 N7         -5.0390   -1.3070   -3.1340 n         1 MOL     -0.648597
     67 O11        -4.0740   -0.5730   -1.2190 o         1 MOL     -0.740255
     68 H28        -4.7920    1.8320   -0.2570 hn        1 MOL      0.267295
     69 H29        -7.5320    0.9740   -0.3440 h1        1 MOL      0.120137
     70 H30        -5.9250    1.2020   -2.4890 hc        1 MOL      0.104506
     71 H31        -7.0350   -0.1570   -2.3520 hc        1 MOL      0.104506
     72 H32        -5.7900   -1.1740   -3.7920 hn        1 MOL      0.320889
     73 H33        -4.2410   -1.8570   -3.4160 hn        1 MOL      0.320889
     74 N8         -5.9170   -1.0040    1.5330 n         1 MOL     -0.289057
     75 C23        -5.8490   -2.3080    2.2560 c3        1 MOL     -0.184563
     76 C24        -4.7350   -3.2880    1.8340 c         1 MOL      0.631420
     77 O12        -4.7120   -4.3570    2.3420 o         1 MOL     -0.576691
     78 H34        -5.3420   -0.2260    1.8110 hn        1 MOL      0.292742
     79 H35        -6.8210   -2.7890    2.2310 h1        1 MOL      0.114170
     80 H36        -5.7280   -2.1170    3.3190 h1        1 MOL      0.114170
     81 N9         -3.8540   -2.8800    0.9470 n         1 MOL     -0.459160
     82 C25        -2.7450   -3.7120    0.5050 c3        1 MOL      0.131532
     83 C26        -1.4340   -2.9120    0.6450 c         1 MOL      0.721374
     84 O13        -1.4560   -1.7150    0.3530 o         1 MOL     -0.715479
     85 C27        -3.0110   -4.0870   -0.9880 c3        1 MOL     -0.277981
     86 C28        -4.1570   -5.1360   -1.1350 ca        1 MOL      0.337836
     87 C29        -5.4140   -4.8270   -1.6850 ca        1 MOL     -0.438910
     88 C30        -3.8910   -6.5200   -0.8540 ca        1 MOL     -0.438910
     89 C31        -6.4130   -5.7840   -1.7550 ca        1 MOL      0.045557
     90 C32        -4.9430   -7.4380   -0.8440 ca        1 MOL      0.045557
     91 C33        -6.2110   -7.1390   -1.3810 ca        1 MOL      0.057884
     92 O14        -7.2960   -7.9960   -1.4400 oh        1 MOL     -0.431970
     93 H37        -3.9960   -2.0000    0.4600 hn        1 MOL      0.387733
     94 H38        -2.8550   -4.5620    1.1770 h1        1 MOL      0.062903
     95 H39        -2.1380   -4.5360   -1.4490 hc        1 MOL      0.073053
     96 H40        -3.1830   -3.1520   -1.5170 hc        1 MOL      0.073053
     97 H41        -5.5810   -3.7990   -1.9920 ha        1 MOL      0.177857
     98 H42        -2.8730   -6.7460   -0.5750 ha        1 MOL      0.177857
     99 H43        -7.3850   -5.6320   -2.2110 ha        1 MOL      0.081782
    100 H44        -4.7720   -8.4700   -0.5530 ha        1 MOL      0.081782
    101 H45        -7.1110   -8.7610   -0.8840 ho        1 MOL      0.358692
    102 N10        -0.3370   -3.5810    1.1330 n         1 MOL     -0.770501
    103 C34         0.9910   -2.9570    1.2490 c3        1 MOL      0.400487
    104 C35         1.9660   -3.7130    0.3400 c         1 MOL      0.534954
    105 O15         1.9540   -4.9790    0.3620 o         1 MOL     -0.587709
    106 C36         1.4070   -2.9200    2.7580 c3        1 MOL     -0.121734
    107 C37         0.7470   -1.6940    3.4860 c3        1 MOL      0.124842
    108 C38         2.8990   -2.9110    3.1040 c3        1 MOL     -0.115279
    109 C39         0.8970   -1.7120    5.0360 c3        1 MOL     -0.430559
    110 H46        -0.5140   -4.5170    1.4450 hn        1 MOL      0.337166
    111 H47         0.9980   -1.9950    0.7540 h1        1 MOL     -0.012143
    112 H48         0.9870   -3.8080    3.2150 hc        1 MOL      0.060241
    113 H49        -0.2750   -1.5230    3.1420 hc        1 MOL      0.037129
    114 H50         1.2560   -0.7770    3.1890 hc        1 MOL      0.037129
    115 H51         3.4720   -3.5860    2.4670 hc        1 MOL      0.019178
    116 H52         3.2460   -1.9180    2.8270 hc        1 MOL      0.019178
    117 H53         3.0460   -3.1520    4.1570 hc        1 MOL      0.019178
    118 H54        -0.0380   -1.3180    5.4300 hc        1 MOL      0.114860
    119 H55         0.9330   -2.7350    5.4230 hc        1 MOL      0.114860
    120 H56         1.8000   -1.1630    5.2900 hc        1 MOL      0.114860
    121 N11         2.8650   -3.0070   -0.3770 n         1 MOL     -0.303332
    122 C40         3.8670   -3.6370   -1.2040 c3        1 MOL      0.031157
    123 C41         5.2180   -3.5370   -0.4990 c         1 MOL      0.373432
    124 O16         5.2930   -2.7600    0.4260 o         1 MOL     -0.298116
    125 C42         4.0040   -2.8620   -2.5510 c3        1 MOL     -0.284530
    126 O17         4.3760   -1.4930   -2.4620 oh        1 MOL     -0.399571
    127 H57         2.8020   -1.9980   -0.3030 hn        1 MOL      0.255462
    128 H58         3.5920   -4.6580   -1.4330 h1        1 MOL      0.087208
    129 H59         3.1450   -2.9460   -3.2320 h1        1 MOL      0.131986
    130 H60         4.7370   -3.4420   -3.0980 h1        1 MOL      0.131986
    131 H61         4.2230   -1.1100   -3.3250 ho        1 MOL      0.388634
    132 N12         6.2390   -4.1370   -1.1160 n         1 MOL     -0.380353
    133 C43         7.6080   -3.8890   -0.6900 c3        1 MOL      0.073258
    134 C44         8.2420   -2.5010   -1.1560 c         1 MOL      0.472407
    135 O18         9.2490   -2.0920   -0.5600 o         1 MOL     -0.511009
    136 C45         8.4360   -5.1170   -1.1560 c3        1 MOL     -0.400963
    137 H62         6.0160   -4.7350   -1.8930 hn        1 MOL      0.290923
    138 H63         7.5200   -3.8340    0.3950 h1        1 MOL      0.130458
    139 H64         7.8260   -5.9860   -0.9030 hc        1 MOL      0.124190
    140 H65         8.4530   -4.9990   -2.2340 hc        1 MOL      0.124190
    141 H66         9.4370   -5.1100   -0.7270 hc        1 MOL      0.124190
    142 N13         7.6090   -1.6680   -1.9530 n         1 MOL     -0.390374
    143 C46         7.9120   -0.2490   -2.1610 c3        1 MOL      0.197849
    144 C47         7.2800    0.6100   -0.9870 c         1 MOL      0.292487
    145 O19         7.9840    1.3520   -0.3060 o         1 MOL     -0.459578
    146 C48         7.3390    0.1170   -3.5600 c3        1 MOL     -0.270793
    147 H67         6.8130   -1.9950   -2.4750 hn        1 MOL      0.228829
    148 H68         8.9770   -0.0270   -2.0570 h1        1 MOL      0.079071
    149 H69         7.7340   -0.4780   -4.3720 hc        1 MOL      0.064622
    150 H70         6.2470    0.0490   -3.5110 hc        1 MOL      0.064622
    151 H71         7.6120    1.1550   -3.7370 hc        1 MOL      0.064622
    152 N14         6.0280    0.2660   -0.6060 n         1 MOL     -0.088289
    153 C49         5.4200    0.7730    0.6520 c3        1 MOL     -0.380822
    154 C50         6.3290    0.3240    1.8140 c         1 MOL      0.479911
    155 O20         6.5430    1.0890    2.7380 o         1 MOL     -0.532697
    156 C51         3.9560    0.3680    0.7730 c3        1 MOL      0.213007
    157 C52         3.0680    1.1420   -0.2570 c3        1 MOL      0.162270
    158 C53         1.6950    0.6440   -0.3210 c         1 MOL      0.498144
    159 O21         0.7150    1.3400    0.1470 o         1 MOL     -0.672843
    160 O22         1.3980   -0.4280   -0.9340 o         1 MOL     -0.672843
    161 H72         5.5880   -0.4320   -1.1830 hn        1 MOL      0.103661
    162 H73         5.5260    1.8610    0.6860 h1        1 MOL      0.185389
    163 H74         3.5410    0.6340    1.7450 hc        1 MOL      0.028642
    164 H75         3.7090   -0.6860    0.6660 hc        1 MOL      0.028642
    165 H76         3.5360    1.0200   -1.2340 hc        1 MOL     -0.095820
    166 H77         3.0180    2.2110   -0.0440 hc        1 MOL     -0.095820
    167 N15         6.8950   -0.9120    1.9430 n         1 MOL     -0.024495
    168 C54         7.6580   -1.4100    3.1290 c3        1 MOL     -0.276861
    169 H78         7.8010   -0.5940    3.8380 h1        1 MOL      0.112853
    170 H79         7.1010   -2.2140    3.6090 h1        1 MOL      0.112853
    171 H80         8.6300   -1.7840    2.8060 h1        1 MOL      0.112853
    172 H81         6.5640   -1.6050    1.2910 hn        1 MOL      0.003997
    173 Ca1        -1.4620    0.3080   -1.1440 Ca        1 MOL      1.876512
    174 O23        -1.0910   -1.8640   -2.6370 oh        1 MOL     -0.868041
    175 H82        -1.7830   -2.0790   -3.2720 ho        1 MOL      0.411541
    176 H83        -0.4250   -2.5360   -2.7910 ho        1 MOL      0.411541
    177 O24         0.0370    1.8810   -2.7880 oh        1 MOL     -0.868041
    178 H84        -0.1940    1.9320   -3.7130 ho        1 MOL      0.411541
    179 H85         0.9140    2.2570   -2.7300 ho        1 MOL      0.411541
    180 O25        -2.5600    0.3450   -4.1540 oh        1 MOL     -0.868041
    181 H86        -2.9890    1.2030   -4.0480 ho        1 MOL      0.411541
    182 H87        -3.1720   -0.1500   -4.7070 ho        1 MOL      0.411541
@<TRIPOS>BOND
     1    1    2 1   
     2    1    4 1   
     3    1    5 1   
     4    1    6 1   
     5    2    3 2   
     6    2    7 1   
     7    7    8 1   
     8    7   15 1   
     9    8    9 1   
    10    8   11 1   
    11    8   16 1   
    12    9   10 2   
    13    9   19 1   
    14   11   12 1   
    15   11   17 1   
    16   11   18 1   
    17   12   13 1   
    18   12   14 1   
    19   19   20 1   
    20   19   28 1   
    21   20   21 1   
    22   20   23 1   
    23   20   29 1   
    24   21   22 2   
    25   21   41 1   
    26   23   24 1   
    27   23   30 1   
    28   23   31 1   
    29   24   25 1   
    30   24   32 1   
    31   24   33 1   
    32   25   26 1   
    33   25   34 1   
    34   25   35 1   
    35   26   27 1   
    36   26   36 1   
    37   26   37 1   
    38   27   38 1   
    39   27   39 1   
    40   27   40 1   
    41   41   42 1   
    42   41   49 1   
    43   42   43 1   
    44   42   45 1   
    45   42   50 1   
    46   43   44 2   
    47   43   53 1   
    48   45   46 1   
    49   45   51 1   
    50   45   52 1   
    51   46   47 1   
    52   46   48 1   
    53   53   54 1   
    54   53   57 1   
    55   54   55 1   
    56   54   58 1   
    57   54   59 1   
    58   55   56 2   
    59   55   60 1   
    60   60   61 1   
    61   60   68 1   
    62   61   62 1   
    63   61   64 1   
    64   61   69 1   
    65   62   63 2   
    66   62   74 1   
    67   64   65 1   
    68   64   70 1   
    69   64   71 1   
    70   65   66 1   
    71   65   67 2   
    72   66   72 1   
    73   66   73 1   
    74   74   75 1   
    75   74   78 1   
    76   75   76 1   
    77   75   79 1   
    78   75   80 1   
    79   76   77 2   
    80   76   81 1   
    81   81   82 1   
    82   81   93 1   
    83   82   83 1   
    84   82   85 1   
    85   82   94 1   
    86   83   84 2   
    87   83  102 1   
    88   85   86 1   
    89   85   95 1   
    90   85   96 1   
    91   86   87 ar  
    92   86   88 ar  
    93   87   89 ar  
    94   87   97 1   
    95   88   90 ar  
    96   88   98 1   
    97   89   91 ar  
    98   89   99 1   
    99   90   91 ar  
   100   90  100 1   
   101   91   92 1   
   102   92  101 1   
   103  102  103 1   
   104  102  110 1   
   105  103  104 1   
   106  103  106 1   
   107  103  111 1   
   108  104  105 2   
   109  104  121 1   
   110  106  107 1   
   111  106  108 1   
   112  106  112 1   
   113  107  109 1   
   114  107  113 1   
   115  107  114 1   
   116  108  115 1   
   117  108  116 1   
   118  108  117 1   
   119  109  118 1   
   120  109  119 1   
   121  109  120 1   
   122  121  122 1   
   123  121  127 1   
   124  122  123 1   
   125  122  125 1   
   126  122  128 1   
   127  123  124 2   
   128  123  132 1   
   129  125  126 1   
   130  125  129 1   
   131  125  130 1   
   132  126  131 1   
   133  132  133 1   
   134  132  137 1   
   135  133  134 1   
   136  133  136 1   
   137  133  138 1   
   138  134  135 2   
   139  134  142 1   
   140  136  139 1   
   141  136  140 1   
   142  136  141 1   
   143  142  143 1   
   144  142  147 1   
   145  143  144 1   
   146  143  146 1   
   147  143  148 1   
   148  144  145 2   
   149  144  152 1   
   150  146  149 1   
   151  146  150 1   
   152  146  151 1   
   153  152  153 1   
   154  152  161 1   
   155  153  154 1   
   156  153  156 1   
   157  153  162 1   
   158  154  155 2   
   159  154  167 1   
   160  156  157 1   
   161  156  163 1   
   162  156  164 1   
   163  157  158 1   
   164  157  165 1   
   165  157  166 1   
   166  158  159 1   
   167  158  160 1   
   168  167  168 1   
   169  167  172 1   
   170  168  169 1   
   171  168  170 1   
   172  168  171 1   
   173  174  175 1   
   174  174  176 1   
   175  177  178 1   
   176  177  179 1   
   177  180  181 1   
   178  180  182 1   
@<TRIPOS>SUBSTRUCTURE
     1 MOL         1 TEMP              0 ****  ****    0 ROOT
