@<TRIPOS>MOLECULE
MOL
  179   176     1     0     0
SMALL
resp


@<TRIPOS>ATOM
      1 C1          0.9860    3.2840    6.1800 c3        1 MOL     -0.301386
      2 C2          0.6460    2.8780    4.6970 c         1 MOL      0.659525
      3 O1          1.5190    2.9440    3.8120 o         1 MOL     -0.614504
      4 H1          1.0290    2.3890    6.8010 hc        1 MOL      0.081491
      5 H2          1.9500    3.7910    6.2070 hc        1 MOL      0.081491
      6 H3          0.2140    3.9510    6.5610 hc        1 MOL      0.081491
      7 N1         -0.5130    2.3990    4.3960 n         1 MOL     -0.403746
      8 C3         -1.0210    2.1070    3.0930 c3        1 MOL     -0.212119
      9 C4         -1.2610    3.4520    2.3480 c         1 MOL      0.556870
     10 O2         -2.3280    4.1330    2.4130 o         1 MOL     -0.513334
     11 C5         -2.3810    1.2990    3.1380 c3        1 MOL     -0.005061
     12 C6         -2.9860    1.0380    1.7720 c         1 MOL      0.851179
     13 O3         -4.1280    0.5920    1.8230 o         1 MOL     -0.797247
     14 O4         -2.3160    1.0980    0.7490 o         1 MOL     -0.797247
     15 H4         -1.2370    2.3340    5.1010 hn        1 MOL      0.284280
     16 H5         -0.2720    1.4530    2.6550 h1        1 MOL      0.055676
     17 H6         -3.0930    1.7820    3.8110 hc        1 MOL      0.023502
     18 H7         -2.2390    0.2990    3.5480 hc        1 MOL      0.023502
     19 N2         -0.2710    3.8320    1.5910 n         1 MOL     -0.330339
     20 C7          0.0350    5.1340    1.0300 c3        1 MOL      0.035347
     21 C8         -1.0870    5.7180    0.1550 c         1 MOL      0.458393
     22 O5         -1.2160    6.9280    0.0440 o         1 MOL     -0.571604
     23 C9          1.3540    5.0450    0.3010 c3        1 MOL     -0.147150
     24 C10         2.0510    6.4290   -0.0660 c3        1 MOL      0.040901
     25 C11         3.2380    6.2780   -0.9630 c3        1 MOL     -0.031366
     26 C12         3.6490    7.5840   -1.6520 c3        1 MOL      0.031118
     27 N3          4.8450    7.5090   -2.4510 n4        1 MOL     -0.307955
     28 H8          0.5320    3.2170    1.5740 hn        1 MOL      0.312264
     29 H9          0.1040    5.8240    1.8680 h1        1 MOL      0.080304
     30 H10         1.1950    4.6130   -0.6880 hc        1 MOL      0.079393
     31 H11         2.0830    4.5090    0.9070 hc        1 MOL      0.079393
     32 H12         2.2580    6.9950    0.8310 hc        1 MOL      0.012405
     33 H13         1.2720    7.0350   -0.5350 hc        1 MOL      0.012405
     34 H14         3.0900    5.5160   -1.7260 hc        1 MOL      0.037161
     35 H15         4.0310    5.9560   -0.2930 hc        1 MOL      0.037161
     36 H16         3.7600    8.4400   -1.0010 hx        1 MOL      0.077971
     37 H17         2.7180    7.7320   -2.2130 hx        1 MOL      0.077971
     38 H18         4.9440    6.6410   -2.9500 hn        1 MOL      0.318013
     39 H19         4.8980    8.2740   -3.1080 hn        1 MOL      0.318013
     40 H20         5.6760    7.5600   -1.8690 hn        1 MOL      0.318013
     41 N4         -1.9160    4.8650   -0.5110 n         1 MOL     -0.149705
     42 C13        -3.0740    5.2620   -1.4190 c3        1 MOL      0.026700
     43 C14        -4.4080    4.6780   -0.8930 c         1 MOL      0.353218
     44 O6         -5.4750    4.9430   -1.5180 o         1 MOL     -0.532451
     45 C15        -2.8620    4.7240   -2.8470 c3        1 MOL     -0.349676
     46 C16        -2.6550    3.2160   -3.0030 c         1 MOL      0.694094
     47 O7         -2.5160    2.4970   -2.0020 o         1 MOL     -0.693912
     48 O8         -2.5970    2.7350   -4.1710 o         1 MOL     -0.693912
     49 H21        -1.5670    3.9220   -0.4370 hn        1 MOL      0.109537
     50 H22        -3.2750    6.3250   -1.5080 h1        1 MOL      0.126938
     51 H23        -2.1250    5.3280   -3.3710 hc        1 MOL      0.109999
     52 H24        -3.8150    4.8680   -3.3540 hc        1 MOL      0.109999
     53 N5         -4.4400    3.9530    0.2640 n         1 MOL     -0.037481
     54 C17        -5.6880    3.4420    0.9370 c3        1 MOL     -0.248287
     55 C18        -6.4630    2.3280    0.1890 c         1 MOL      0.561053
     56 O9         -7.6010    2.0640    0.5410 o         1 MOL     -0.550984
     57 H25        -3.5440    3.8240    0.6980 hn        1 MOL      0.031140
     58 H26        -6.3670    4.2890    1.0010 h1        1 MOL      0.122347
     59 H27        -5.5550    3.0480    1.9430 h1        1 MOL      0.122347
     60 N6         -5.7800    1.6980   -0.7570 n         1 MOL     -0.428493
     61 C19        -6.3440    0.6280   -1.5810 c3        1 MOL      0.055265
     62 C20        -6.5190   -0.7190   -0.7990 c         1 MOL      0.313062
     63 O10        -7.3160   -1.5370   -1.3650 o         1 MOL     -0.527285
     64 C21        -5.4350    0.3640   -2.8620 c3        1 MOL     -0.396996
     65 C22        -4.3600   -0.5900   -2.5190 c         1 MOL      0.691311
     66 N7         -4.3760   -1.7630   -3.1000 n         1 MOL     -0.796639
     67 O11        -3.4740   -0.3750   -1.7590 o         1 MOL     -0.548825
     68 H28        -4.8540    2.0220   -1.0230 hn        1 MOL      0.408081
     69 H29        -7.3330    0.9710   -1.8770 h1        1 MOL      0.119978
     70 H30        -4.9220    1.2740   -3.1890 hc        1 MOL      0.146240
     71 H31        -6.0480   -0.1550   -3.5950 hc        1 MOL      0.146240
     72 H32        -5.0200   -2.0230   -3.8350 hn        1 MOL      0.367632
     73 H33        -3.5320   -2.2980   -2.9680 hn        1 MOL      0.367632
     74 N8         -5.8880   -0.9580    0.3630 n         1 MOL     -0.117075
     75 C23        -6.1300   -2.0600    1.2860 c3        1 MOL     -0.273788
     76 C24        -4.9030   -2.8950    1.5760 c         1 MOL      0.637677
     77 O12        -5.0340   -3.8430    2.3290 o         1 MOL     -0.569752
     78 H34        -5.2790   -0.2070    0.6600 hn        1 MOL      0.326409
     79 H35        -6.8390   -2.7050    0.7620 h1        1 MOL      0.137697
     80 H36        -6.5710   -1.7810    2.2390 h1        1 MOL      0.137697
     81 N9         -3.7640   -2.6310    0.9280 n         1 MOL     -0.385232
     82 C25        -2.6400   -3.4760    0.9430 c3        1 MOL      0.146712
     83 C26        -1.3490   -2.6170    0.9760 c         1 MOL      0.482390
     84 O13        -1.3220   -1.5220    0.4230 o         1 MOL     -0.552266
     85 C27        -2.5740   -4.4400   -0.2290 c3        1 MOL      0.003752
     86 C28        -3.7620   -5.3980   -0.3630 ca        1 MOL     -0.001523
     87 C29        -4.8760   -5.2990   -1.3190 ca        1 MOL     -0.179494
     88 C30        -3.7320   -6.4790    0.5540 ca        1 MOL     -0.179494
     89 C31        -5.9310   -6.2500   -1.2740 ca        1 MOL     -0.252108
     90 C32        -4.7810   -7.4420    0.5030 ca        1 MOL     -0.252108
     91 C33        -5.8780   -7.3330   -0.3620 ca        1 MOL      0.363427
     92 O14        -6.8430   -8.2860   -0.3260 oh        1 MOL     -0.474279
     93 H37        -3.7750   -1.9300    0.2020 hn        1 MOL      0.205127
     94 H38        -2.7180   -4.1040    1.8200 h1        1 MOL      0.023409
     95 H39        -1.6950   -5.0640   -0.1110 hc        1 MOL     -0.006084
     96 H40        -2.4400   -3.8130   -1.1130 hc        1 MOL     -0.006084
     97 H41        -5.0110   -4.5130   -2.0520 ha        1 MOL      0.152693
     98 H42        -2.9290   -6.6050    1.2670 ha        1 MOL      0.152693
     99 H43        -6.7450   -6.1200   -1.9620 ha        1 MOL      0.150434
    100 H44        -4.8400   -8.2860    1.1650 ha        1 MOL      0.150434
    101 H45        -6.6600   -8.8510    0.4300 ho        1 MOL      0.341424
    102 N10        -0.3000   -3.1640    1.5940 n         1 MOL     -0.447741
    103 C34         1.0320   -2.5280    1.5170 c3        1 MOL     -0.054337
    104 C35         1.9410   -3.4330    0.6030 c         1 MOL      0.484553
    105 O15         2.1330   -4.6390    0.9580 o         1 MOL     -0.525105
    106 C36         1.6290   -2.5070    2.9490 c3        1 MOL      0.067804
    107 C37         0.8080   -1.5010    3.7870 c3        1 MOL      0.250975
    108 C38         3.0830   -2.0860    2.9880 c3        1 MOL     -0.047508
    109 C39         1.1000   -1.4270    5.2680 c3        1 MOL     -0.405928
    110 H46        -0.4330   -3.9890    2.1670 hn        1 MOL      0.312483
    111 H47         0.9700   -1.5420    1.0730 h1        1 MOL      0.064904
    112 H48         1.4930   -3.5090    3.3520 hc        1 MOL      0.022545
    113 H49        -0.2060   -1.9110    3.7280 hc        1 MOL     -0.024681
    114 H50         0.7300   -0.5410    3.2790 hc        1 MOL     -0.024681
    115 H51         3.6380   -2.8250    2.4080 hc        1 MOL     -0.008378
    116 H52         3.2560   -1.0460    2.7020 hc        1 MOL     -0.008378
    117 H53         3.4220   -2.1930    4.0170 hc        1 MOL     -0.008378
    118 H54         1.4690   -2.3880    5.6180 hc        1 MOL      0.093255
    119 H55         1.8590   -0.6660    5.4310 hc        1 MOL      0.093255
    120 H56         0.2310   -1.1120    5.8540 hc        1 MOL      0.093255
    121 N11         2.3130   -2.9340   -0.6010 n         1 MOL     -0.308320
    122 C40         3.3030   -3.6010   -1.4410 c3        1 MOL     -0.083938
    123 C41         4.7550   -3.4300   -0.8400 c         1 MOL      0.426088
    124 O16         4.9240   -2.7750    0.1870 o         1 MOL     -0.331469
    125 C42         3.2420   -3.1340   -2.9610 c3        1 MOL      0.015978
    126 O17         3.5830   -1.7380   -3.1210 oh        1 MOL     -0.557008
    127 H57         2.0170   -1.9840   -0.7550 hn        1 MOL      0.271937
    128 H58         3.1760   -4.6730   -1.3950 h1        1 MOL      0.086706
    129 H59         2.2380   -3.2520   -3.3690 h1        1 MOL      0.077049
    130 H60         3.9190   -3.6790   -3.6140 h1        1 MOL      0.077049
    131 H61         2.7610   -1.2720   -2.9730 ho        1 MOL      0.396019
    132 N12         5.8060   -4.0730   -1.4100 n         1 MOL     -0.359533
    133 C43         7.1700   -4.1010   -0.7910 c3        1 MOL      0.076638
    134 C44         7.8660   -2.7640   -0.9610 c         1 MOL      0.534793
    135 O18         8.5740   -2.3910   -0.0580 o         1 MOL     -0.526650
    136 C45         7.8470   -5.3260   -1.3890 c3        1 MOL     -0.223945
    137 H62         5.7140   -4.5040   -2.3230 hn        1 MOL      0.254917
    138 H63         7.0580   -4.2420    0.2880 h1        1 MOL      0.102228
    139 H64         8.0760   -5.1640   -2.4400 hc        1 MOL      0.074380
    140 H65         8.7770   -5.5380   -0.8630 hc        1 MOL      0.074380
    141 H66         7.1140   -6.1240   -1.2620 hc        1 MOL      0.074380
    142 N13         7.6800   -1.9630   -2.0220 n         1 MOL     -0.426969
    143 C46         8.1650   -0.5750   -2.1900 c3        1 MOL      0.026857
    144 C47         7.5510    0.2630   -1.0290 c         1 MOL      0.393759
    145 O19         8.0940    1.3490   -0.6380 o         1 MOL     -0.509945
    146 C48         7.8340   -0.1710   -3.6160 c3        1 MOL     -0.192111
    147 H67         7.1540   -2.3920   -2.7760 hn        1 MOL      0.271979
    148 H68         9.2380   -0.5160   -2.0460 h1        1 MOL      0.116999
    149 H69         6.7920    0.1260   -3.7470 hc        1 MOL      0.068233
    150 H70         8.3860    0.7570   -3.7750 hc        1 MOL      0.068233
    151 H71         8.1720   -0.8620   -4.3920 hc        1 MOL      0.068233
    152 N14         6.2890   -0.0490   -0.5490 n         1 MOL     -0.030741
    153 C49         5.5660    0.6850    0.4460 c3        1 MOL     -0.164553
    154 C50         6.0570    0.2530    1.8050 c         1 MOL      0.454049
    155 O20         6.4600    1.1130    2.5860 o         1 MOL     -0.557355
    156 C51         4.0450    0.4620    0.4260 c3        1 MOL     -0.086557
    157 C52         3.4880    1.0650   -0.9090 c3        1 MOL     -0.036616
    158 C53         1.9780    0.9030   -1.0220 c         1 MOL      0.726600
    159 O21         1.4870   -0.2320   -1.1870 o         1 MOL     -0.787556
    160 O22         1.1490    1.7930   -0.8120 o         1 MOL     -0.787556
    161 H72         5.9110   -0.9380   -0.8540 hn        1 MOL      0.072364
    162 H73         5.8210    1.7380    0.3010 h1        1 MOL      0.114086
    163 H74         3.5090    0.9330    1.2540 hc        1 MOL      0.112151
    164 H75         3.7790   -0.5860    0.5180 hc        1 MOL      0.112151
    165 H76         3.9410    0.5730   -1.7680 hc        1 MOL     -0.025039
    166 H77         3.8200    2.1020   -0.9480 hc        1 MOL     -0.025039
    167 N15         6.2900   -1.0340    2.0760 n         1 MOL     -0.016164
    168 C54         7.1000   -1.4680    3.2340 c3        1 MOL     -0.225164
    169 H78         6.6760   -2.3820    3.6510 h1        1 MOL      0.093802
    170 H79         8.1230   -1.6580    2.9120 h1        1 MOL      0.093802
    171 H80         7.0960   -0.6870    3.9950 h1        1 MOL      0.093802
    172 H81         6.0400   -1.6640    1.3220 hn        1 MOL      0.041072
    173 Ca1        -1.0760    0.3740   -1.2310 Ca        1 MOL      1.747579
    174 O23        -0.6230    0.9130   -3.8190 oh        1 MOL     -0.823438
    175 H82         0.2420    1.1760   -4.1370 ho        1 MOL      0.394966
    176 H83        -1.2220    1.5500   -4.2030 ho        1 MOL      0.394966
    177 O24        -0.8650   -1.6320   -2.7930 oh        1 MOL     -0.823438
    178 H84        -0.5400   -1.4270   -3.6630 ho        1 MOL      0.394966
    179 H85        -0.6640   -2.5670   -2.6740 ho        1 MOL      0.394966
@<TRIPOS>BOND
     1    1    2 1   
     2    1    4 1   
     3    1    5 1   
     4    1    6 1   
     5    2    3 2   
     6    2    7 1   
     7    7    8 1   
     8    7   15 1   
     9    8    9 1   
    10    8   11 1   
    11    8   16 1   
    12    9   10 2   
    13    9   19 1   
    14   11   12 1   
    15   11   17 1   
    16   11   18 1   
    17   12   13 1   
    18   12   14 1   
    19   19   20 1   
    20   19   28 1   
    21   20   21 1   
    22   20   23 1   
    23   20   29 1   
    24   21   22 2   
    25   21   41 1   
    26   23   24 1   
    27   23   30 1   
    28   23   31 1   
    29   24   25 1   
    30   24   32 1   
    31   24   33 1   
    32   25   26 1   
    33   25   34 1   
    34   25   35 1   
    35   26   27 1   
    36   26   36 1   
    37   26   37 1   
    38   27   38 1   
    39   27   39 1   
    40   27   40 1   
    41   41   42 1   
    42   41   49 1   
    43   42   43 1   
    44   42   45 1   
    45   42   50 1   
    46   43   44 2   
    47   43   53 1   
    48   45   46 1   
    49   45   51 1   
    50   45   52 1   
    51   46   47 1   
    52   46   48 1   
    53   53   54 1   
    54   53   57 1   
    55   54   55 1   
    56   54   58 1   
    57   54   59 1   
    58   55   56 2   
    59   55   60 1   
    60   60   61 1   
    61   60   68 1   
    62   61   62 1   
    63   61   64 1   
    64   61   69 1   
    65   62   63 2   
    66   62   74 1   
    67   64   65 1   
    68   64   70 1   
    69   64   71 1   
    70   65   66 1   
    71   65   67 2   
    72   66   72 1   
    73   66   73 1   
    74   74   75 1   
    75   74   78 1   
    76   75   76 1   
    77   75   79 1   
    78   75   80 1   
    79   76   77 2   
    80   76   81 1   
    81   81   82 1   
    82   81   93 1   
    83   82   83 1   
    84   82   85 1   
    85   82   94 1   
    86   83   84 2   
    87   83  102 1   
    88   85   86 1   
    89   85   95 1   
    90   85   96 1   
    91   86   87 ar  
    92   86   88 ar  
    93   87   89 ar  
    94   87   97 1   
    95   88   90 ar  
    96   88   98 1   
    97   89   91 ar  
    98   89   99 1   
    99   90   91 ar  
   100   90  100 1   
   101   91   92 1   
   102   92  101 1   
   103  102  103 1   
   104  102  110 1   
   105  103  104 1   
   106  103  106 1   
   107  103  111 1   
   108  104  105 2   
   109  104  121 1   
   110  106  107 1   
   111  106  108 1   
   112  106  112 1   
   113  107  109 1   
   114  107  113 1   
   115  107  114 1   
   116  108  115 1   
   117  108  116 1   
   118  108  117 1   
   119  109  118 1   
   120  109  119 1   
   121  109  120 1   
   122  121  122 1   
   123  121  127 1   
   124  122  123 1   
   125  122  125 1   
   126  122  128 1   
   127  123  124 2   
   128  123  132 1   
   129  125  126 1   
   130  125  129 1   
   131  125  130 1   
   132  126  131 1   
   133  132  133 1   
   134  132  137 1   
   135  133  134 1   
   136  133  136 1   
   137  133  138 1   
   138  134  135 2   
   139  134  142 1   
   140  136  139 1   
   141  136  140 1   
   142  136  141 1   
   143  142  143 1   
   144  142  147 1   
   145  143  144 1   
   146  143  146 1   
   147  143  148 1   
   148  144  145 2   
   149  144  152 1   
   150  146  149 1   
   151  146  150 1   
   152  146  151 1   
   153  152  153 1   
   154  152  161 1   
   155  153  154 1   
   156  153  156 1   
   157  153  162 1   
   158  154  155 2   
   159  154  167 1   
   160  156  157 1   
   161  156  163 1   
   162  156  164 1   
   163  157  158 1   
   164  157  165 1   
   165  157  166 1   
   166  158  159 1   
   167  158  160 1   
   168  167  168 1   
   169  167  172 1   
   170  168  169 1   
   171  168  170 1   
   172  168  171 1   
   173  174  175 1   
   174  174  176 1   
   175  177  178 1   
   176  177  179 1   
@<TRIPOS>SUBSTRUCTURE
     1 MOL         1 TEMP              0 ****  ****    0 ROOT
