@<TRIPOS>MOLECULE
MOL
  186   183     1     0     0
SMALL
resp


@<TRIPOS>ATOM
      1 C1          0.6760   -2.7870    6.1850 c3        1 MOL     -0.265513
      2 C2          0.9520   -2.5370    4.6890 c         1 MOL      0.771419
      3 O1          0.1040   -2.8290    3.8150 o         1 MOL     -0.601571
      4 H1          0.8060   -1.8570    6.7390 hc        1 MOL      0.060165
      5 H2         -0.3450   -3.1450    6.3130 hc        1 MOL      0.060165
      6 H3          1.3740   -3.5340    6.5630 hc        1 MOL      0.060165
      7 N1          2.1490   -2.0950    4.3540 n         1 MOL     -0.653557
      8 C3          2.6240   -1.9170    2.9530 c3        1 MOL      0.427641
      9 C4          2.9800   -3.2600    2.3160 c         1 MOL      0.349756
     10 O2          3.6610   -4.0850    2.9450 o         1 MOL     -0.593045
     11 C5          3.7560   -0.9040    2.9440 c3        1 MOL     -0.229983
     12 C6          4.3080   -0.4750    1.5920 c         1 MOL      0.815540
     13 O3          3.7700   -1.0150    0.5530 o         1 MOL     -0.715812
     14 O4          5.3210    0.2080    1.4960 o         1 MOL     -0.715812
     15 H4          2.7870   -1.8310    5.0930 hn        1 MOL      0.302823
     16 H5          1.8080   -1.5210    2.3440 h1        1 MOL     -0.079843
     17 H6          4.5600   -1.2960    3.5650 hc        1 MOL      0.031686
     18 H7          3.3360   -0.0200    3.4200 hc        1 MOL      0.031686
     19 N2          2.4800   -3.5560    1.1160 n         1 MOL     -0.029582
     20 C7          2.6420   -4.8540    0.4920 c3        1 MOL      0.089010
     21 C8          3.8860   -4.9210   -0.3860 c         1 MOL      0.480882
     22 O5          4.2730   -6.0430   -0.6710 o         1 MOL     -0.569831
     23 C9          1.3060   -5.2620   -0.2450 c3        1 MOL      0.253859
     24 C10         0.0710   -5.2620    0.6970 c3        1 MOL      0.124052
     25 C11         1.3390   -6.5670   -1.1050 c3        1 MOL     -0.211620
     26 C12         0.1990   -6.0610    2.0450 c3        1 MOL     -0.475932
     27 H8          1.7980   -2.9120    0.7530 hn        1 MOL      0.085722
     28 H9          2.7130   -5.5790    1.3050 h1        1 MOL     -0.011822
     29 H10         1.2570   -4.3760   -0.8780 hc        1 MOL     -0.068132
     30 H11        -0.7870   -5.5840    0.1110 hc        1 MOL     -0.002706
     31 H12        -0.2980   -4.2490    0.8880 hc        1 MOL     -0.002706
     32 H13         0.4140   -7.1300   -0.9350 hc        1 MOL      0.029807
     33 H14         1.4190   -6.3210   -2.1640 hc        1 MOL      0.029807
     34 H15         2.2030   -7.1830   -0.8510 hc        1 MOL      0.029807
     35 H16        -0.8290   -6.1470    2.4010 hc        1 MOL      0.114051
     36 H17         0.7230   -6.9940    1.8730 hc        1 MOL      0.114051
     37 H18         0.7210   -5.4370    2.7690 hc        1 MOL      0.114051
     38 N3          4.4440   -3.7840   -0.8740 n         1 MOL     -0.425808
     39 C13         5.5030   -3.8130   -1.9670 c3        1 MOL      0.252439
     40 C14         6.6990   -2.9230   -1.4940 c         1 MOL      0.321485
     41 O6          7.6990   -2.9380   -2.2180 o         1 MOL     -0.544413
     42 C15         4.9700   -3.3090   -3.3710 c3        1 MOL     -0.161511
     43 C16         4.2470   -1.9010   -3.3790 c         1 MOL      0.699414
     44 O7          3.4730   -1.6510   -4.3380 o         1 MOL     -0.677420
     45 O8          4.4290   -1.0810   -2.4740 o         1 MOL     -0.677420
     46 H19         4.0680   -2.9100   -0.5280 hn        1 MOL      0.124605
     47 H20         5.8700   -4.8260   -2.1260 h1        1 MOL      0.039029
     48 H21         4.3070   -4.1050   -3.7030 hc        1 MOL      0.039476
     49 H22         5.7650   -3.3410   -4.1080 hc        1 MOL      0.039476
     50 N4          6.5620   -2.1770   -0.4060 n         1 MOL     -0.197740
     51 C17         7.7160   -1.4460    0.1890 c3        1 MOL     -0.226218
     52 C18         7.9160   -0.0690   -0.4130 c         1 MOL      0.637153
     53 O9          9.0140    0.4230   -0.1310 o         1 MOL     -0.627931
     54 H23         5.6750   -2.1230    0.0730 hn        1 MOL      0.198812
     55 H24         8.7090   -1.8730    0.0610 h1        1 MOL      0.116716
     56 H25         7.5560   -1.1960    1.2300 h1        1 MOL      0.116716
     57 N5          6.9760    0.5100   -1.2160 n         1 MOL     -0.377280
     58 C19         7.1110    1.9000   -1.7790 c3        1 MOL     -0.059191
     59 C20         7.0020    2.9720   -0.6810 c         1 MOL      0.435067
     60 O10         7.1670    4.1520   -1.0390 o         1 MOL     -0.567488
     61 C21         6.1030    2.1220   -2.9400 c3        1 MOL     -0.206054
     62 C22         4.6180    2.1740   -2.5680 c         1 MOL      0.789115
     63 O11         4.2580    2.1450   -1.3730 o         1 MOL     -0.726949
     64 O12         3.8260    2.2500   -3.5280 o         1 MOL     -0.726949
     65 H26         6.1270    0.0120   -1.4140 hn        1 MOL      0.292039
     66 H27         8.0550    2.0760   -2.2840 h1        1 MOL      0.101314
     67 H28         6.2430    1.1670   -3.4670 hc        1 MOL      0.073549
     68 H29         6.3300    2.9240   -3.6340 hc        1 MOL      0.073549
     69 N6          6.6410    2.6460    0.5770 n         1 MOL     -0.185556
     70 C23         6.4760    3.5830    1.7330 c3        1 MOL     -0.332748
     71 C24         5.0950    4.2000    1.9690 c         1 MOL      0.651872
     72 O13         4.9470    5.0030    2.8920 o         1 MOL     -0.606910
     73 H30         6.3810    1.6890    0.7590 hn        1 MOL      0.261453
     74 H31         7.2020    4.3860    1.5980 h1        1 MOL      0.129132
     75 H32         6.6730    3.0230    2.6460 h1        1 MOL      0.129132
     76 N7          4.0770    3.7160    1.1960 n         1 MOL     -0.346883
     77 C25         2.6700    4.0500    1.4550 c3        1 MOL     -0.068015
     78 C26         1.8150    2.8020    1.7050 c         1 MOL      0.618389
     79 O14         2.0320    1.7870    1.0630 o         1 MOL     -0.670492
     80 C27         2.1160    5.0430    0.3860 c3        1 MOL      0.182802
     81 C28         2.7640    6.4290    0.4940 c3        1 MOL     -0.250834
     82 C29         2.2450    7.3630   -0.5370 c         1 MOL      0.702679
     83 N8          2.6880    7.3160   -1.7500 n         1 MOL     -0.831049
     84 O15         1.3460    8.1020   -0.2820 o         1 MOL     -0.613048
     85 H33         4.2520    3.1900    0.3550 hn        1 MOL      0.252065
     86 H34         2.5830    4.5530    2.4200 h1        1 MOL      0.043525
     87 H35         1.0500    5.1380    0.5970 hc        1 MOL     -0.010977
     88 H36         2.1290    4.6700   -0.6350 hc        1 MOL     -0.010977
     89 H37         3.8470    6.3800    0.3640 hc        1 MOL      0.060547
     90 H38         2.4880    6.8260    1.4720 hc        1 MOL      0.060547
     91 H39         3.5210    6.7560   -1.8450 hn        1 MOL      0.381635
     92 H40         2.0470    7.7100   -2.4400 hn        1 MOL      0.381635
     93 N9          0.7230    3.0110    2.3920 n         1 MOL     -0.430098
     94 C30        -0.3190    1.9880    2.4810 c3        1 MOL      0.156691
     95 C31        -1.5070    2.4620    1.6800 c         1 MOL      0.384320
     96 O16        -2.1680    3.4250    2.0750 o         1 MOL     -0.569687
     97 C32        -0.6770    1.6130    3.9450 c3        1 MOL      0.161866
     98 C33        -1.7390    0.5240    4.0930 c3        1 MOL     -0.188114
     99 C34         0.5670    1.4670    4.8030 c3        1 MOL     -0.188114
    100 H41         0.6270    3.8950    2.8750 hn        1 MOL      0.280251
    101 H42        -0.0240    1.0860    1.9480 h1        1 MOL      0.111733
    102 H43        -1.1130    2.5430    4.3310 hc        1 MOL     -0.033584
    103 H44        -2.3720    0.6500    3.2100 hc        1 MOL      0.028976
    104 H45        -1.2530   -0.4490    3.9880 hc        1 MOL      0.028976
    105 H46        -2.2480    0.5120    5.0510 hc        1 MOL      0.028976
    106 H47         1.0870    2.4220    4.8260 hc        1 MOL      0.028976
    107 H48         0.3680    1.2500    5.8550 hc        1 MOL      0.028976
    108 H49         1.3070    0.7560    4.4250 hc        1 MOL      0.028976
    109 N10        -1.7600    1.8670    0.5220 n         1 MOL     -0.247420
    110 C35        -2.9810    2.2030   -0.3590 c3        1 MOL     -0.039644
    111 C36        -4.3420    1.7470    0.2860 c         1 MOL      0.356549
    112 O17        -4.3060    0.7820    1.0830 o         1 MOL     -0.317200
    113 C37        -2.6580    1.6560   -1.7990 c3        1 MOL     -0.085016
    114 C38        -3.5010    2.1780   -2.9280 c         1 MOL      0.565689
    115 N11        -3.7130    3.4830   -3.1040 n         1 MOL     -0.794962
    116 O18        -4.1020    1.3750   -3.5690 o         1 MOL     -0.467532
    117 H50        -1.1220    1.2230    0.0840 hn        1 MOL      0.247796
    118 H51        -3.0450    3.2860   -0.4410 h1        1 MOL      0.054690
    119 H52        -2.6210    0.5590   -1.7930 hc        1 MOL      0.084425
    120 H53        -1.6190    1.9240   -1.9570 hc        1 MOL      0.084425
    121 H54        -3.2160    4.2260   -2.6390 hn        1 MOL      0.355079
    122 H55        -4.1550    3.6650   -4.0000 hn        1 MOL      0.355079
    123 N12        -5.4350    2.1430   -0.3490 n         1 MOL     -0.262596
    124 C39        -6.7760    1.6500    0.0720 c3        1 MOL      0.013560
    125 C40        -6.8390    0.1270   -0.1050 c         1 MOL      0.608451
    126 O19        -7.3070   -0.5530    0.7680 o         1 MOL     -0.494042
    127 C41        -7.8890    2.3800   -0.7960 c3        1 MOL     -0.207311
    128 C42        -9.2580    2.0650   -0.3030 ca        1 MOL      0.059045
    129 C43        -9.8940    2.8060    0.7660 ca        1 MOL     -0.210242
    130 C44        -9.9340    0.9650   -0.9010 ca        1 MOL     -0.210242
    131 C45       -11.1380    2.4000    1.2460 ca        1 MOL     -0.175736
    132 C46       -11.2350    0.7020   -0.5140 ca        1 MOL     -0.175736
    133 C47       -11.8460    1.3450    0.5500 ca        1 MOL      0.261192
    134 O20       -13.0440    0.9520    1.0410 oh        1 MOL     -0.507323
    135 H56        -5.2940    3.0320   -0.8080 hn        1 MOL      0.200488
    136 H57        -6.7360    1.8490    1.1420 h1        1 MOL      0.073085
    137 H58        -7.8930    2.0830   -1.8410 hc        1 MOL      0.096986
    138 H59        -7.7500    3.4680   -0.8200 hc        1 MOL      0.096986
    139 H60        -9.3230    3.5380    1.3030 ha        1 MOL      0.149347
    140 H61        -9.3780    0.3040   -1.5390 ha        1 MOL      0.149347
    141 H62       -11.6610    2.8150    2.0950 ha        1 MOL      0.121571
    142 H63       -11.8320   -0.0840   -0.9430 ha        1 MOL      0.121571
    143 H64       -13.4330    0.2210    0.5660 ho        1 MOL      0.379724
    144 N13        -6.3060   -0.3920   -1.2550 n         1 MOL     -0.125616
    145 C48        -6.2700   -1.7860   -1.5380 c3        1 MOL     -0.319811
    146 C49        -5.4780   -2.6020   -0.4430 c         1 MOL      0.262986
    147 O21        -5.8700   -3.7170    0.0320 o         1 MOL     -0.482461
    148 C50        -5.5380   -2.1610   -2.8560 c3        1 MOL      0.539471
    149 C51        -6.1680   -1.6150   -4.1690 c3        1 MOL     -0.472808
    150 C52        -5.2900   -2.0390   -5.3350 c         1 MOL      0.808101
    151 O22        -5.8630   -2.3750   -6.4110 o         1 MOL     -0.759665
    152 O23        -4.0730   -2.2050   -5.1940 o         1 MOL     -0.759665
    153 H65        -6.0590    0.2820   -1.9660 hn        1 MOL      0.120466
    154 H66        -7.2060   -2.3290   -1.5060 h1        1 MOL      0.104435
    155 H67        -5.4760   -3.2340   -2.9930 hc        1 MOL     -0.058710
    156 H68        -4.5350   -1.7590   -2.7150 hc        1 MOL     -0.058710
    157 H69        -6.0640   -0.5360   -4.2790 hc        1 MOL      0.050142
    158 H70        -7.1680   -2.0350   -4.2240 hc        1 MOL      0.050142
    159 N14        -4.3550   -2.0120    0.0320 n         1 MOL     -0.163645
    160 C53        -3.4810   -2.5970    0.9810 c3        1 MOL     -0.048805
    161 C54        -4.1670   -2.4860    2.3050 c         1 MOL      0.425711
    162 O24        -4.0330   -3.3520    3.1580 o         1 MOL     -0.562623
    163 C55        -2.1210   -1.9800    0.9970 c3        1 MOL      0.045119
    164 C56        -1.4550   -1.9940   -0.3860 c3        1 MOL     -0.012895
    165 C57        -0.1190   -1.2820   -0.4070 c         1 MOL      0.761322
    166 O25         0.8640   -1.9250   -0.6950 o         1 MOL     -0.745528
    167 O26        -0.0060   -0.0730   -0.4520 o         1 MOL     -0.745528
    168 H71        -4.1840   -1.0240   -0.1420 hn        1 MOL      0.131029
    169 H72        -3.3780   -3.6670    0.7750 h1        1 MOL      0.110225
    170 H73        -1.4870   -2.6380    1.5770 hc        1 MOL      0.015856
    171 H74        -2.1180   -0.9890    1.4400 hc        1 MOL      0.015856
    172 H75        -2.0870   -1.4760   -1.1030 hc        1 MOL     -0.023687
    173 H76        -1.3270   -3.0350   -0.6850 hc        1 MOL     -0.023687
    174 N15        -4.9890   -1.4070    2.5480 n         1 MOL     -0.002605
    175 C58        -5.7800   -1.2190    3.7900 c3        1 MOL     -0.215018
    176 H77        -5.2290   -0.5780    4.4770 h1        1 MOL      0.073767
    177 H78        -6.7350   -0.7540    3.5470 h1        1 MOL      0.073767
    178 H79        -5.9560   -2.1870    4.2590 h1        1 MOL      0.073767
    179 H80        -5.0830   -0.6950    1.8340 hn        1 MOL      0.016177
    180 Ca1         2.4790    0.1480   -1.2010 Ca        1 MOL      1.665144
    181 O27         1.2870   -0.6490   -3.4440 oh        1 MOL     -0.843101
    182 H81         0.6890   -1.3810   -3.2730 ho        1 MOL      0.400200
    183 H82         2.0890   -1.0530   -3.7620 ho        1 MOL      0.400200
    184 O28         1.2840    2.5220   -1.9860 oh        1 MOL     -0.843101
    185 H83         2.1340    2.7720   -2.3470 ho        1 MOL      0.400200
    186 H84         0.7660    2.2670   -2.7470 ho        1 MOL      0.400200
@<TRIPOS>BOND
     1    1    2 1   
     2    1    4 1   
     3    1    5 1   
     4    1    6 1   
     5    2    3 2   
     6    2    7 1   
     7    7    8 1   
     8    7   15 1   
     9    8    9 1   
    10    8   11 1   
    11    8   16 1   
    12    9   10 2   
    13    9   19 1   
    14   11   12 1   
    15   11   17 1   
    16   11   18 1   
    17   12   13 1   
    18   12   14 1   
    19   19   20 1   
    20   19   27 1   
    21   20   21 1   
    22   20   23 1   
    23   20   28 1   
    24   21   22 2   
    25   21   38 1   
    26   23   24 1   
    27   23   25 1   
    28   23   29 1   
    29   24   26 1   
    30   24   30 1   
    31   24   31 1   
    32   25   32 1   
    33   25   33 1   
    34   25   34 1   
    35   26   35 1   
    36   26   36 1   
    37   26   37 1   
    38   38   39 1   
    39   38   46 1   
    40   39   40 1   
    41   39   42 1   
    42   39   47 1   
    43   40   41 2   
    44   40   50 1   
    45   42   43 1   
    46   42   48 1   
    47   42   49 1   
    48   43   44 1   
    49   43   45 1   
    50   50   51 1   
    51   50   54 1   
    52   51   52 1   
    53   51   55 1   
    54   51   56 1   
    55   52   53 2   
    56   52   57 1   
    57   57   58 1   
    58   57   65 1   
    59   58   59 1   
    60   58   61 1   
    61   58   66 1   
    62   59   60 2   
    63   59   69 1   
    64   61   62 1   
    65   61   67 1   
    66   61   68 1   
    67   62   63 1   
    68   62   64 1   
    69   69   70 1   
    70   69   73 1   
    71   70   71 1   
    72   70   74 1   
    73   70   75 1   
    74   71   72 2   
    75   71   76 1   
    76   76   77 1   
    77   76   85 1   
    78   77   78 1   
    79   77   80 1   
    80   77   86 1   
    81   78   79 2   
    82   78   93 1   
    83   80   81 1   
    84   80   87 1   
    85   80   88 1   
    86   81   82 1   
    87   81   89 1   
    88   81   90 1   
    89   82   83 1   
    90   82   84 2   
    91   83   91 1   
    92   83   92 1   
    93   93   94 1   
    94   93  100 1   
    95   94   95 1   
    96   94   97 1   
    97   94  101 1   
    98   95   96 2   
    99   95  109 1   
   100   97   98 1   
   101   97   99 1   
   102   97  102 1   
   103   98  103 1   
   104   98  104 1   
   105   98  105 1   
   106   99  106 1   
   107   99  107 1   
   108   99  108 1   
   109  109  110 1   
   110  109  117 1   
   111  110  111 1   
   112  110  113 1   
   113  110  118 1   
   114  111  112 2   
   115  111  123 1   
   116  113  114 1   
   117  113  119 1   
   118  113  120 1   
   119  114  115 1   
   120  114  116 2   
   121  115  121 1   
   122  115  122 1   
   123  123  124 1   
   124  123  135 1   
   125  124  125 1   
   126  124  127 1   
   127  124  136 1   
   128  125  126 2   
   129  125  144 1   
   130  127  128 1   
   131  127  137 1   
   132  127  138 1   
   133  128  129 ar  
   134  128  130 ar  
   135  129  131 ar  
   136  129  139 1   
   137  130  132 ar  
   138  130  140 1   
   139  131  133 ar  
   140  131  141 1   
   141  132  133 ar  
   142  132  142 1   
   143  133  134 1   
   144  134  143 1   
   145  144  145 1   
   146  144  153 1   
   147  145  146 1   
   148  145  148 1   
   149  145  154 1   
   150  146  147 2   
   151  146  159 1   
   152  148  149 1   
   153  148  155 1   
   154  148  156 1   
   155  149  150 1   
   156  149  157 1   
   157  149  158 1   
   158  150  151 1   
   159  150  152 1   
   160  159  160 1   
   161  159  168 1   
   162  160  161 1   
   163  160  163 1   
   164  160  169 1   
   165  161  162 2   
   166  161  174 1   
   167  163  164 1   
   168  163  170 1   
   169  163  171 1   
   170  164  165 1   
   171  164  172 1   
   172  164  173 1   
   173  165  166 1   
   174  165  167 1   
   175  174  175 1   
   176  174  179 1   
   177  175  176 1   
   178  175  177 1   
   179  175  178 1   
   180  181  182 1   
   181  181  183 1   
   182  184  185 1   
   183  184  186 1   
@<TRIPOS>SUBSTRUCTURE
     1 MOL         1 TEMP              0 ****  ****    0 ROOT
