@<TRIPOS>MOLECULE
MOL
  179   176     1     0     0
SMALL
resp


@<TRIPOS>ATOM
      1 C1          2.5600    3.4990    4.3510 c3        1 MOL     -0.400577
      2 C2          1.7020    3.3110    3.1010 c         1 MOL      0.665846
      3 O1          2.1950    3.5400    1.9660 o         1 MOL     -0.636231
      4 H1          3.2260    4.3510    4.2080 hc        1 MOL      0.108946
      5 H2          1.9150    3.6830    5.2100 hc        1 MOL      0.108946
      6 H3          3.1520    2.6010    4.5240 hc        1 MOL      0.108946
      7 N1          0.4270    2.9330    3.2000 n         1 MOL     -0.511576
      8 C3         -0.5270    2.7360    2.1250 c3        1 MOL      0.160042
      9 C4         -1.0290    3.9810    1.4220 c         1 MOL      0.592386
     10 O2         -2.0910    4.5200    1.7410 o         1 MOL     -0.529206
     11 C5         -1.7490    1.9800    2.6710 c3        1 MOL     -0.367878
     12 C6         -2.9380    1.6510    1.7440 c         1 MOL      0.839287
     13 O3         -4.0810    1.5200    2.2410 o         1 MOL     -0.698987
     14 O4         -2.7450    1.4810    0.5470 o         1 MOL     -0.698987
     15 H4          0.0110    2.8470    4.1140 hn        1 MOL      0.313876
     16 H5         -0.0700    2.2080    1.2850 h1        1 MOL      0.012977
     17 H6         -2.0240    2.5310    3.5690 hc        1 MOL      0.061517
     18 H7         -1.5010    0.9770    3.0040 hc        1 MOL      0.061517
     19 N2         -0.2310    4.5510    0.5510 n         1 MOL     -0.501333
     20 C7         -0.5820    5.9340    0.1550 c3        1 MOL      0.036553
     21 C8         -1.6770    6.0670   -0.8920 c         1 MOL      0.467764
     22 O5         -2.0630    7.1840   -1.2660 o         1 MOL     -0.566745
     23 C9          0.6930    6.7460   -0.2780 c3        1 MOL     -0.312748
     24 C10         1.9400    6.6340    0.6400 c3        1 MOL      0.327628
     25 C11         3.0310    7.6230    0.0490 c3        1 MOL      0.054555
     26 C12         4.3530    7.6500    0.8150 c3        1 MOL     -0.166819
     27 N3          4.2020    8.1080    2.2050 n4        1 MOL     -0.390630
     28 H8          0.6880    4.1830    0.3570 hn        1 MOL      0.370270
     29 H9         -0.9080    6.4570    1.0550 h1        1 MOL      0.093212
     30 H10         0.3850    7.7840   -0.3680 hc        1 MOL      0.099203
     31 H11         0.9370    6.3750   -1.2650 hc        1 MOL      0.099203
     32 H12         2.3320    5.6170    0.6340 hc        1 MOL     -0.056942
     33 H13         1.6410    6.9270    1.6410 hc        1 MOL     -0.056942
     34 H14         2.6160    8.6280    0.0680 hc        1 MOL      0.000866
     35 H15         3.1790    7.3830   -1.0060 hc        1 MOL      0.000866
     36 H16         4.9570    8.3620    0.2540 hx        1 MOL      0.150451
     37 H17         4.8080    6.6570    0.7440 hx        1 MOL      0.150451
     38 H18         3.8340    9.0480    2.1670 hn        1 MOL      0.340325
     39 H19         3.5920    7.4940    2.7340 hn        1 MOL      0.340325
     40 H20         5.1320    8.2030    2.5840 hn        1 MOL      0.340325
     41 N4         -2.3710    4.9960   -1.2320 n         1 MOL     -0.168660
     42 C13        -3.4370    4.9620   -2.2760 c3        1 MOL      0.078627
     43 C14        -4.8800    4.6190   -1.6720 c         1 MOL      0.342379
     44 O6         -5.9460    4.9700   -2.1880 o         1 MOL     -0.524973
     45 C15        -3.0500    3.9220   -3.2680 c3        1 MOL     -0.103225
     46 C16        -2.5030    2.6310   -2.6010 c         1 MOL      0.698816
     47 O7         -3.2180    1.6160   -2.5060 o         1 MOL     -0.738512
     48 O8         -1.3000    2.4890   -2.2810 o         1 MOL     -0.738512
     49 H21        -2.2430    4.1530   -0.6950 hn        1 MOL      0.030250
     50 H22        -3.4930    5.9410   -2.7600 h1        1 MOL      0.091732
     51 H23        -2.2600    4.4050   -3.8450 hc        1 MOL      0.032577
     52 H24        -3.8300    3.7260   -4.0050 hc        1 MOL      0.032577
     53 N5         -4.8730    3.8950   -0.5590 n         1 MOL     -0.089507
     54 C17        -6.0830    3.5380    0.2540 c3        1 MOL     -0.202335
     55 C18        -6.6230    2.1720    0.0360 c         1 MOL      0.651988
     56 O9         -7.6570    1.8810    0.5850 o         1 MOL     -0.574815
     57 H25        -3.9830    3.6910   -0.1140 hn        1 MOL      0.160809
     58 H26        -6.9450    4.2040    0.2960 h1        1 MOL      0.114988
     59 H27        -5.6830    3.6260    1.2640 h1        1 MOL      0.114988
     60 N6         -5.9280    1.3300   -0.8070 n         1 MOL     -0.453034
     61 C19        -6.5300    0.0760   -1.2860 c3        1 MOL      0.134514
     62 C20        -6.4470   -1.0520   -0.2260 c         1 MOL      0.029011
     63 O10        -6.9940   -2.1690   -0.3920 o         1 MOL     -0.426608
     64 C21        -5.8360   -0.4450   -2.6320 c3        1 MOL     -0.362104
     65 C22        -4.7520   -1.4530   -2.3640 c         1 MOL      0.808423
     66 N7         -4.8510   -2.6420   -2.9430 n         1 MOL     -0.804952
     67 O11        -3.7480   -1.1840   -1.7640 o         1 MOL     -0.586539
     68 H28        -5.1050    1.7060   -1.2500 hn        1 MOL      0.265003
     69 H29        -7.5800    0.2540   -1.5210 h1        1 MOL      0.119225
     70 H30        -5.4290    0.4220   -3.1500 hc        1 MOL      0.115056
     71 H31        -6.6310   -0.8860   -3.2390 hc        1 MOL      0.115056
     72 H32        -5.6360   -2.9440   -3.5000 hn        1 MOL      0.365849
     73 H33        -4.0980   -3.2890   -2.7930 hn        1 MOL      0.365849
     74 N8         -5.8590   -0.8100    0.9370 n         1 MOL      0.296930
     75 C23        -5.9620   -1.4570    2.2580 c3        1 MOL     -0.444632
     76 C24        -4.8300   -2.4640    2.4540 c         1 MOL      0.664930
     77 O12        -4.9200   -3.1630    3.4370 o         1 MOL     -0.582624
     78 H34        -5.5370    0.1440    1.0260 hn        1 MOL      0.103810
     79 H35        -6.8660   -2.0680    2.3160 h1        1 MOL      0.168042
     80 H36        -5.7960   -0.6890    3.0080 h1        1 MOL      0.168042
     81 N9         -3.8030   -2.4980    1.5810 n         1 MOL     -0.180506
     82 C25        -2.6550   -3.4220    1.4790 c3        1 MOL      0.061683
     83 C26        -1.3470   -2.6510    1.1660 c         1 MOL      0.291433
     84 O13        -1.3520   -1.5540    0.5730 o         1 MOL     -0.484702
     85 C27        -2.9390   -4.3270    0.2990 c3        1 MOL      0.289890
     86 C28        -4.0950   -5.3540    0.3740 ca        1 MOL     -0.063610
     87 C29        -5.4030   -5.0520   -0.0560 ca        1 MOL     -0.194361
     88 C30        -3.8990   -6.6310    0.9370 ca        1 MOL     -0.194361
     89 C31        -6.4490   -5.9690   -0.0190 ca        1 MOL     -0.090463
     90 C32        -4.9820   -7.5810    1.0500 ca        1 MOL     -0.090463
     91 C33        -6.2260   -7.2780    0.5090 ca        1 MOL      0.116385
     92 O14        -7.3280   -8.0770    0.6990 oh        1 MOL     -0.408059
     93 H37        -3.7200   -1.7560    0.9080 hn        1 MOL     -0.032872
     94 H38        -2.6570   -3.9700    2.4140 h1        1 MOL      0.020850
     95 H39        -2.0240   -4.9030    0.1110 hc        1 MOL     -0.050990
     96 H40        -3.0610   -3.8280   -0.6570 hc        1 MOL     -0.050990
     97 H41        -5.6100   -4.1020   -0.5180 ha        1 MOL      0.098746
     98 H42        -2.9500   -6.9890    1.3130 ha        1 MOL      0.098746
     99 H43        -7.4380   -5.8100   -0.4200 ha        1 MOL      0.107177
    100 H44        -4.7980   -8.5180    1.5710 ha        1 MOL      0.107177
    101 H45        -7.0560   -8.9210    1.0650 ho        1 MOL      0.329009
    102 N10        -0.2410   -3.1130    1.6740 n         1 MOL     -0.124580
    103 C34         1.0690   -2.5500    1.4000 c3        1 MOL     -0.133539
    104 C35         1.9560   -3.6470    0.7550 c         1 MOL      0.418964
    105 O15         1.8380   -4.7760    1.2210 o         1 MOL     -0.551189
    106 C36         1.7410   -1.7480    2.4690 c3        1 MOL     -0.098572
    107 C37         2.3560   -2.5550    3.6320 c3        1 MOL     -0.329008
    108 C38         0.8190   -0.6880    3.1070 c3        1 MOL     -0.270766
    109 C39         3.4420   -1.8470    4.4950 c3        1 MOL     -0.298664
    110 H46        -0.3340   -3.8870    2.3120 hn        1 MOL      0.236142
    111 H47         0.9650   -1.8400    0.5740 h1        1 MOL      0.165623
    112 H48         2.4730   -1.1100    1.9600 hc        1 MOL      0.080696
    113 H49         2.8380   -3.4650    3.2820 hc        1 MOL      0.156956
    114 H50         1.6430   -3.0590    4.2790 hc        1 MOL      0.156956
    115 H51        -0.0230   -1.1670    3.6100 hc        1 MOL      0.114894
    116 H52         1.3880   -0.0390    3.7680 hc        1 MOL      0.114894
    117 H53         0.4950   -0.1080    2.2530 hc        1 MOL      0.114894
    118 H54         3.5730   -2.4680    5.3780 hc        1 MOL      0.093024
    119 H55         4.3950   -1.8250    3.9590 hc        1 MOL      0.093024
    120 H56         3.0670   -0.8470    4.7060 hc        1 MOL      0.093024
    121 N11         2.9310   -3.2980    0.0000 n         1 MOL     -0.115864
    122 C40         3.9650   -4.0550   -0.6670 c3        1 MOL      0.123217
    123 C41         5.3830   -3.6680   -0.2880 c         1 MOL      0.308076
    124 O16         5.6290   -2.6050    0.3130 o         1 MOL     -0.337677
    125 C42         3.8400   -3.8850   -2.1670 c3        1 MOL     -0.212899
    126 O17         3.7960   -2.5400   -2.4460 oh        1 MOL     -0.485478
    127 H57         2.9590   -2.3090   -0.2290 hn        1 MOL      0.112955
    128 H58         3.7740   -5.1050   -0.4510 h1        1 MOL      0.052917
    129 H59         2.9270   -4.3840   -2.5020 h1        1 MOL      0.117044
    130 H60         4.6830   -4.3570   -2.6510 h1        1 MOL      0.117044
    131 H61         3.9180   -2.3070   -3.3730 ho        1 MOL      0.412084
    132 N12         6.3760   -4.4840   -0.5910 n         1 MOL     -0.352320
    133 C43         7.7800   -4.1490   -0.3010 c3        1 MOL      0.127603
    134 C44         8.1790   -2.7300   -0.8430 c         1 MOL      0.476998
    135 O18         8.8790   -2.0290   -0.1050 o         1 MOL     -0.512648
    136 C45         8.6750   -5.2500   -0.9040 c3        1 MOL     -0.324249
    137 H62         6.1700   -5.2810   -1.1810 hn        1 MOL      0.258353
    138 H63         7.7580   -4.0110    0.7820 h1        1 MOL      0.089810
    139 H64         9.4950   -4.8770   -1.5080 hc        1 MOL      0.101622
    140 H65         9.0680   -5.7890   -0.0520 hc        1 MOL      0.101622
    141 H66         8.1460   -5.9520   -1.5570 hc        1 MOL      0.101622
    142 N13         7.7980   -2.3810   -2.0650 n         1 MOL     -0.358185
    143 C46         7.9460   -1.0760   -2.7090 c3        1 MOL      0.143324
    144 C47         7.2760    0.0890   -1.8460 c         1 MOL      0.361255
    145 O19         7.9570    1.1150   -1.6270 o         1 MOL     -0.499525
    146 C48         7.4300   -1.1820   -4.1400 c3        1 MOL     -0.249802
    147 H67         7.3680   -3.0630   -2.6690 hn        1 MOL      0.244108
    148 H68         9.0200   -0.9060   -2.7750 h1        1 MOL      0.071792
    149 H69         7.7800   -0.2620   -4.6270 hc        1 MOL      0.066511
    150 H70         7.8310   -2.0830   -4.5990 hc        1 MOL      0.066511
    151 H71         6.3370   -1.1600   -4.1490 hc        1 MOL      0.066511
    152 N14         6.0820   -0.1370   -1.2410 n         1 MOL     -0.072911
    153 C49         5.3640    0.8480   -0.3680 c3        1 MOL     -0.135458
    154 C50         6.0580    0.8530    0.9590 c         1 MOL      0.392764
    155 O20         6.3710    1.9190    1.5180 o         1 MOL     -0.578814
    156 C51         3.8640    0.5120   -0.3300 c3        1 MOL      0.019638
    157 C52         3.1260    0.6790   -1.6890 c3        1 MOL     -0.251250
    158 C53         1.6320    0.3750   -1.6490 c         1 MOL      0.816244
    159 O21         0.9450    0.4600   -0.6150 o         1 MOL     -0.765371
    160 O22         1.0840    0.0380   -2.7430 o         1 MOL     -0.765371
    161 H72         5.9040   -1.1250   -1.1950 hn        1 MOL      0.066236
    162 H73         5.5840    1.8380   -0.7940 h1        1 MOL      0.128726
    163 H74         3.3580    1.1370    0.3990 hc        1 MOL      0.099594
    164 H75         3.8200   -0.5430   -0.0470 hc        1 MOL      0.099594
    165 H76         3.6350    0.1310   -2.4850 hc        1 MOL      0.041084
    166 H77         3.1920    1.7570   -1.7960 hc        1 MOL      0.041084
    167 N15         6.5070   -0.1880    1.5340 n         1 MOL      0.067163
    168 C54         7.3130   -0.1990    2.7390 c3        1 MOL     -0.506676
    169 H78         8.2220    0.3800    2.5730 h1        1 MOL      0.165309
    170 H79         6.7480    0.2410    3.5600 h1        1 MOL      0.165309
    171 H80         7.5790   -1.2260    2.9890 h1        1 MOL      0.165309
    172 H81         6.2750   -1.0920    1.1310 hn        1 MOL      0.078680
    173 Ca1        -1.4300    0.0590   -1.4260 Ca        1 MOL      1.706306
    174 O23        -1.5960   -0.4780   -4.1110 oh        1 MOL     -0.836382
    175 H82        -0.7440   -0.2690   -4.5040 ho        1 MOL      0.407909
    176 H83        -2.2350   -0.1020   -4.7120 ho        1 MOL      0.407909
    177 O24        -0.7170   -2.5580   -2.2440 oh        1 MOL     -0.836382
    178 H84        -1.1410   -3.1180   -2.9070 ho        1 MOL      0.407909
    179 H85         0.1700   -2.4270   -2.5700 ho        1 MOL      0.407909
@<TRIPOS>BOND
     1    1    2 1   
     2    1    4 1   
     3    1    5 1   
     4    1    6 1   
     5    2    3 2   
     6    2    7 1   
     7    7    8 1   
     8    7   15 1   
     9    8    9 1   
    10    8   11 1   
    11    8   16 1   
    12    9   10 2   
    13    9   19 1   
    14   11   12 1   
    15   11   17 1   
    16   11   18 1   
    17   12   13 1   
    18   12   14 1   
    19   19   20 1   
    20   19   28 1   
    21   20   21 1   
    22   20   23 1   
    23   20   29 1   
    24   21   22 2   
    25   21   41 1   
    26   23   24 1   
    27   23   30 1   
    28   23   31 1   
    29   24   25 1   
    30   24   32 1   
    31   24   33 1   
    32   25   26 1   
    33   25   34 1   
    34   25   35 1   
    35   26   27 1   
    36   26   36 1   
    37   26   37 1   
    38   27   38 1   
    39   27   39 1   
    40   27   40 1   
    41   41   42 1   
    42   41   49 1   
    43   42   43 1   
    44   42   45 1   
    45   42   50 1   
    46   43   44 2   
    47   43   53 1   
    48   45   46 1   
    49   45   51 1   
    50   45   52 1   
    51   46   47 1   
    52   46   48 1   
    53   53   54 1   
    54   53   57 1   
    55   54   55 1   
    56   54   58 1   
    57   54   59 1   
    58   55   56 2   
    59   55   60 1   
    60   60   61 1   
    61   60   68 1   
    62   61   62 1   
    63   61   64 1   
    64   61   69 1   
    65   62   63 2   
    66   62   74 1   
    67   64   65 1   
    68   64   70 1   
    69   64   71 1   
    70   65   66 1   
    71   65   67 2   
    72   66   72 1   
    73   66   73 1   
    74   74   75 1   
    75   74   78 1   
    76   75   76 1   
    77   75   79 1   
    78   75   80 1   
    79   76   77 2   
    80   76   81 1   
    81   81   82 1   
    82   81   93 1   
    83   82   83 1   
    84   82   85 1   
    85   82   94 1   
    86   83   84 2   
    87   83  102 1   
    88   85   86 1   
    89   85   95 1   
    90   85   96 1   
    91   86   87 ar  
    92   86   88 ar  
    93   87   89 ar  
    94   87   97 1   
    95   88   90 ar  
    96   88   98 1   
    97   89   91 ar  
    98   89   99 1   
    99   90   91 ar  
   100   90  100 1   
   101   91   92 1   
   102   92  101 1   
   103  102  103 1   
   104  102  110 1   
   105  103  104 1   
   106  103  106 1   
   107  103  111 1   
   108  104  105 2   
   109  104  121 1   
   110  106  107 1   
   111  106  108 1   
   112  106  112 1   
   113  107  109 1   
   114  107  113 1   
   115  107  114 1   
   116  108  115 1   
   117  108  116 1   
   118  108  117 1   
   119  109  118 1   
   120  109  119 1   
   121  109  120 1   
   122  121  122 1   
   123  121  127 1   
   124  122  123 1   
   125  122  125 1   
   126  122  128 1   
   127  123  124 2   
   128  123  132 1   
   129  125  126 1   
   130  125  129 1   
   131  125  130 1   
   132  126  131 1   
   133  132  133 1   
   134  132  137 1   
   135  133  134 1   
   136  133  136 1   
   137  133  138 1   
   138  134  135 2   
   139  134  142 1   
   140  136  139 1   
   141  136  140 1   
   142  136  141 1   
   143  142  143 1   
   144  142  147 1   
   145  143  144 1   
   146  143  146 1   
   147  143  148 1   
   148  144  145 2   
   149  144  152 1   
   150  146  149 1   
   151  146  150 1   
   152  146  151 1   
   153  152  153 1   
   154  152  161 1   
   155  153  154 1   
   156  153  156 1   
   157  153  162 1   
   158  154  155 2   
   159  154  167 1   
   160  156  157 1   
   161  156  163 1   
   162  156  164 1   
   163  157  158 1   
   164  157  165 1   
   165  157  166 1   
   166  158  159 1   
   167  158  160 1   
   168  167  168 1   
   169  167  172 1   
   170  168  169 1   
   171  168  170 1   
   172  168  171 1   
   173  174  175 1   
   174  174  176 1   
   175  177  178 1   
   176  177  179 1   
@<TRIPOS>SUBSTRUCTURE
     1 MOL         1 TEMP              0 ****  ****    0 ROOT
