@<TRIPOS>MOLECULE
MOL
  183   181     1     0     0
SMALL
resp


@<TRIPOS>ATOM
      1 C1         -0.7270    1.8510    6.4100 c3        1 MOL     -0.277056
      2 C2         -1.0860    1.8880    4.8840 c         1 MOL      0.828194
      3 O1         -0.2120    2.2630    4.1600 o         1 MOL     -0.582219
      4 H1          0.3340    2.0670    6.5370 hc        1 MOL      0.052419
      5 H2         -1.3150    2.6010    6.9400 hc        1 MOL      0.052419
      6 H3         -0.9470    0.8630    6.8120 hc        1 MOL      0.052419
      7 N1         -2.3170    1.4970    4.4760 n         1 MOL     -0.792275
      8 C3         -2.7830    1.4750    3.1170 c3        1 MOL      0.147340
      9 C4         -3.1750    2.8440    2.6910 c         1 MOL      0.554412
     10 O2         -4.1140    3.3880    3.3270 o         1 MOL     -0.613757
     11 C5         -3.9320    0.4870    2.9610 c3        1 MOL     -0.040580
     12 C6         -4.4190    0.3690    1.5710 c         1 MOL      0.597103
     13 O3         -5.6140    0.0660    1.3630 o         1 MOL     -0.653783
     14 O4         -3.8040    0.7280    0.5840 o         1 MOL     -0.653783
     15 H4         -2.9920    1.2680    5.1870 hn        1 MOL      0.359052
     16 H5         -2.0010    1.2630    2.3860 h1        1 MOL      0.058210
     17 H6         -4.7480    0.6490    3.6690 hc        1 MOL      0.019040
     18 H7         -3.5780   -0.4680    3.3370 hc        1 MOL      0.019040
     19 N2         -2.6400    3.3860    1.6120 n         1 MOL     -0.153259
     20 C7         -3.0510    4.7270    1.1390 c3        1 MOL     -0.262690
     21 C8         -4.2000    4.8020    0.2080 c         1 MOL      0.459835
     22 O5         -4.7230    5.8400   -0.1760 o         1 MOL     -0.569044
     23 C9         -1.8880    5.4520    0.5110 c3        1 MOL      0.300587
     24 C10        -1.5380    4.7940   -0.8980 c3        1 MOL     -0.093388
     25 C11        -0.8090    5.6210    1.5520 c3        1 MOL     -0.103025
     26 C12        -0.2490    5.3210   -1.5590 c3        1 MOL     -0.246124
     27 H8         -1.8710    2.8790    1.1960 hn        1 MOL      0.184305
     28 H9         -3.3170    5.3350    2.0000 h1        1 MOL      0.110687
     29 H10        -2.1850    6.4750    0.3100 hc        1 MOL     -0.050352
     30 H11        -2.3580    4.8960   -1.6020 hc        1 MOL      0.090511
     31 H12        -1.3560    3.7370   -0.7130 hc        1 MOL      0.090511
     32 H13         0.0220    6.1940    1.1290 hc        1 MOL      0.004526
     33 H14        -1.2000    6.2670    2.3290 hc        1 MOL      0.004526
     34 H15        -0.4360    4.7500    2.0970 hc        1 MOL      0.004526
     35 H16         0.5870    5.0810   -0.9030 hc        1 MOL      0.054615
     36 H17        -0.0990    4.8010   -2.5050 hc        1 MOL      0.054615
     37 H18        -0.2710    6.3960   -1.7610 hc        1 MOL      0.054615
     38 N3         -4.6400    3.6500   -0.2750 n         1 MOL     -0.122281
     39 C13        -5.5720    3.4100   -1.4180 c3        1 MOL     -0.181758
     40 C14        -6.9270    2.9040   -0.9140 c         1 MOL      0.569612
     41 O6         -7.9090    3.2000   -1.6300 o         1 MOL     -0.570455
     42 C15        -4.9140    2.5190   -2.4690 c3        1 MOL     -0.129555
     43 C16        -3.5460    2.8990   -2.9210 c         1 MOL      0.798793
     44 O7         -2.5890    2.1160   -2.7030 o         1 MOL     -0.728300
     45 O8         -3.4190    3.8120   -3.7500 o         1 MOL     -0.728300
     46 H19        -4.2650    2.8170    0.1580 hn        1 MOL      0.017784
     47 H20        -5.8160    4.3180   -1.9670 h1        1 MOL      0.117520
     48 H21        -5.4540    2.4250   -3.4060 hc        1 MOL      0.053391
     49 H22        -4.8390    1.5080   -2.0690 hc        1 MOL      0.053391
     50 N4         -7.1080    2.1490    0.1720 n         1 MOL     -0.446470
     51 C17        -8.3960    1.4830    0.4730 c3        1 MOL     -0.068643
     52 C18        -8.5570    0.1660   -0.3430 c         1 MOL      0.441811
     53 O9         -9.6560   -0.2310   -0.6100 o         1 MOL     -0.591281
     54 H23        -6.2990    1.9050    0.7330 hn        1 MOL      0.350787
     55 H24        -9.2540    2.1420    0.3470 h1        1 MOL      0.076377
     56 H25        -8.3030    1.2760    1.5440 h1        1 MOL      0.076377
     57 N5         -7.4320   -0.3940   -0.7370 n         1 MOL      0.015037
     58 C19        -7.4010   -1.6390   -1.5270 c3        1 MOL     -0.073987
     59 C20        -7.0360   -2.9000   -0.6650 c         1 MOL      0.364237
     60 O10        -7.1240   -3.9960   -1.2550 o         1 MOL     -0.523647
     61 C21        -6.5240   -1.5280   -2.7560 c3        1 MOL     -0.076018
     62 C22        -5.0750   -1.2590   -2.4300 c         1 MOL      0.698615
     63 O11        -4.3810   -0.6430   -3.2610 o         1 MOL     -0.719019
     64 O12        -4.5490   -1.6930   -1.3500 o         1 MOL     -0.719019
     65 H26        -6.5750   -0.0480   -0.3400 hn        1 MOL     -0.010273
     66 H27        -8.4470   -1.8380   -1.7940 h1        1 MOL      0.094463
     67 H28        -6.9140   -0.7100   -3.3740 hc        1 MOL      0.029585
     68 H29        -6.5840   -2.4400   -3.3350 hc        1 MOL      0.029585
     69 N6         -6.8580   -2.7880    0.6620 n         1 MOL     -0.151954
     70 C23        -6.7170   -3.8750    1.5000 c3        1 MOL     -0.224502
     71 C24        -5.3110   -4.5350    1.5220 c         1 MOL      0.551642
     72 O13        -5.2500   -5.7460    1.8020 o         1 MOL     -0.584702
     73 H30        -6.7240   -1.8500    0.9840 hn        1 MOL      0.205045
     74 H31        -7.4190   -4.6270    1.1420 h1        1 MOL      0.094769
     75 H32        -6.9730   -3.5680    2.5150 h1        1 MOL      0.094769
     76 N7         -4.2400   -3.9080    0.9890 n         1 MOL     -0.331346
     77 C25        -2.8810   -4.4920    1.1330 c3        1 MOL     -0.030326
     78 C26        -1.8820   -3.2990    1.1410 c         1 MOL      0.602344
     79 O14        -2.2550   -2.1770    0.7960 o         1 MOL     -0.706514
     80 C27        -2.6240   -5.4930   -0.0190 c3        1 MOL     -0.017835
     81 C28        -3.0080   -4.9030   -1.4090 c3        1 MOL     -0.129783
     82 C29        -1.9310   -4.0170   -2.0430 c         1 MOL      0.483481
     83 N8         -1.0370   -4.6200   -2.6490 n         1 MOL     -0.639454
     84 O15        -1.8450   -2.7830   -1.9810 o         1 MOL     -0.538227
     85 H33        -4.4240   -3.0990    0.4180 hn        1 MOL      0.353282
     86 H34        -2.6800   -5.0920    2.0190 h1        1 MOL      0.042975
     87 H35        -3.2420   -6.3790    0.1490 hc        1 MOL      0.013198
     88 H36        -1.5630   -5.7210   -0.0340 hc        1 MOL      0.013198
     89 H37        -3.9780   -4.4080   -1.3750 hc        1 MOL      0.071267
     90 H38        -3.1370   -5.8380   -1.9590 hc        1 MOL      0.071267
     91 H39        -1.0420   -5.6320   -2.6720 hn        1 MOL      0.318151
     92 H40        -0.3900   -3.9400   -3.0250 hn        1 MOL      0.318151
     93 N9         -0.6770   -3.5530    1.5730 n         1 MOL     -0.378446
     94 C30         0.4820   -2.5460    1.6840 c3        1 MOL     -0.054880
     95 C31         1.6720   -3.1360    0.9640 c         1 MOL      0.400467
     96 O16         2.3050   -4.0750    1.4710 o         1 MOL     -0.562762
     97 C32         0.7530   -2.3200    3.1910 c3        1 MOL      0.232760
     98 C33         1.8360   -1.2930    3.4230 c3        1 MOL     -0.290813
     99 C34        -0.6120   -1.9950    3.9750 c3        1 MOL     -0.290813
    100 H41        -0.4850   -4.4910    1.8860 hn        1 MOL      0.265571
    101 H42         0.0680   -1.6450    1.2410 h1        1 MOL      0.170674
    102 H43         1.2020   -3.2230    3.6070 hc        1 MOL     -0.037512
    103 H44         2.7920   -1.6330    3.0310 hc        1 MOL      0.070200
    104 H45         1.4450   -0.3760    2.9790 hc        1 MOL      0.070200
    105 H46         1.9560   -1.1400    4.4960 hc        1 MOL      0.070200
    106 H47        -0.3480   -1.7050    4.9900 hc        1 MOL      0.070200
    107 H48        -1.1740   -1.2760    3.3720 hc        1 MOL      0.070200
    108 H49        -1.2300   -2.8850    4.0720 hc        1 MOL      0.070200
    109 N10         1.9950   -2.6420   -0.1900 n         1 MOL     -0.210734
    110 C35         3.2560   -2.9700   -1.0360 c3        1 MOL      0.027658
    111 C36         4.4460   -2.1900   -0.3520 c         1 MOL      0.327152
    112 O17         4.4080   -1.3500    0.5320 o         1 MOL     -0.201144
    113 C37         3.0930   -2.5010   -2.4550 c3        1 MOL     -0.354466
    114 C38         2.1630   -3.3400   -3.2310 c         1 MOL      0.721494
    115 N11         2.5280   -4.5140   -3.5770 n         1 MOL     -0.789260
    116 O18         1.1350   -2.8680   -3.6530 o         1 MOL     -0.554439
    117 H50         1.3600   -1.9220   -0.5120 hn        1 MOL      0.210969
    118 H51         3.5380   -4.0180   -0.9660 h1        1 MOL      0.063503
    119 H52         4.0120   -2.2500   -2.9900 hc        1 MOL      0.124780
    120 H53         2.5860   -1.5380   -2.3450 hc        1 MOL      0.124780
    121 H54         3.4030   -4.8560   -3.2230 hn        1 MOL      0.371500
    122 H55         2.0170   -4.9140   -4.3570 hn        1 MOL      0.371500
    123 N12         5.6850   -2.3980   -0.8470 n         1 MOL     -0.353643
    124 C39         6.8420   -1.7670   -0.3070 c3        1 MOL     -0.054465
    125 C40         7.0210   -0.2720   -0.4500 c         1 MOL      0.828456
    126 O19         7.4960    0.3990    0.4480 o         1 MOL     -0.532022
    127 C41         8.1170   -2.4520   -0.8100 c3        1 MOL     -0.117813
    128 C42         9.4450   -2.0200   -0.1220 ca        1 MOL     -0.096205
    129 C43         9.8360   -2.5740    1.0530 ca        1 MOL     -0.110897
    130 C44        10.2540   -0.9960   -0.7360 ca        1 MOL     -0.110897
    131 C45        10.9240   -2.0940    1.7550 ca        1 MOL     -0.271671
    132 C46        11.2940   -0.4930   -0.0240 ca        1 MOL     -0.271671
    133 C47        11.6150   -1.0290    1.2220 ca        1 MOL      0.423366
    134 O20        12.6930   -0.6130    1.8550 oh        1 MOL     -0.565249
    135 H56         5.8160   -2.9350   -1.6880 hn        1 MOL      0.228028
    136 H57         6.8600   -2.0040    0.7530 h1        1 MOL      0.120292
    137 H58         8.1910   -2.2880   -1.8830 hc        1 MOL      0.049654
    138 H59         7.9110   -3.5140   -0.7090 hc        1 MOL      0.049654
    139 H60         9.2610   -3.3500    1.5320 ha        1 MOL      0.130964
    140 H61        10.0180   -0.6520   -1.7310 ha        1 MOL      0.130964
    141 H62        11.1910   -2.5600    2.6890 ha        1 MOL      0.140328
    142 H63        11.9210    0.2990   -0.4280 ha        1 MOL      0.140328
    143 H64        13.0630    0.1650    1.4460 ho        1 MOL      0.403642
    144 N13         6.4990    0.3440   -1.5000 n         1 MOL     -0.550519
    145 C48         6.3820    1.8290   -1.5190 c3        1 MOL     -0.023268
    146 C49         5.3450    2.4290   -0.5150 c         1 MOL      0.280897
    147 O21         5.3750    3.6420   -0.1650 o         1 MOL     -0.448256
    148 C50         5.9700    2.1480   -2.9410 c3        1 MOL      0.024923
    149 C51         5.8430    3.6470   -3.2950 c3        1 MOL     -0.191214
    150 C52         7.2210    4.3530   -3.3270 c         1 MOL      0.706038
    151 O22         7.2300    5.5350   -2.9410 o         1 MOL     -0.732844
    152 O23         8.2280    3.7900   -3.8890 o         1 MOL     -0.732844
    153 H65         6.0400   -0.1530   -2.2510 hn        1 MOL      0.266559
    154 H66         7.3880    2.2260   -1.3860 h1        1 MOL      0.131904
    155 H67         5.0110    1.6650   -3.1420 hc        1 MOL     -0.024006
    156 H68         6.6740    1.6080   -3.5730 hc        1 MOL     -0.024006
    157 H69         5.1160    4.0870   -2.6120 hc        1 MOL      0.048387
    158 H70         5.4040    3.6730   -4.3010 hc        1 MOL      0.048387
    159 N14         4.4160    1.5910   -0.0610 n         1 MOL     -0.035461
    160 C53         3.5780    1.8800    1.1300 c3        1 MOL     -0.129777
    161 C54         4.2660    1.5510    2.4100 c         1 MOL      0.464440
    162 O24         4.0190    2.1330    3.4550 o         1 MOL     -0.534316
    163 C55         2.2270    1.1860    0.9970 c3        1 MOL      0.015649
    164 C56         1.5600    1.7360   -0.2500 c3        1 MOL     -0.121342
    165 C57         0.3000    0.8970   -0.3910 c         1 MOL      0.728887
    166 O25        -0.7550    1.3350    0.0810 o         1 MOL     -0.736911
    167 O26         0.2920   -0.2660   -0.8330 o         1 MOL     -0.736911
    168 H71         4.5750    0.6130   -0.2590 hn        1 MOL      0.122041
    169 H72         3.3830    2.9490    1.1890 h1        1 MOL      0.123270
    170 H73         1.5280    1.4090    1.8070 hc        1 MOL      0.080565
    171 H74         2.3240    0.0990    0.9620 hc        1 MOL      0.080565
    172 H75         2.2050    1.5750   -1.1110 hc        1 MOL      0.021144
    173 H76         1.3030    2.7930   -0.2050 hc        1 MOL      0.021144
    174 N15         5.2760    0.5770    2.4100 n         1 MOL     -0.041143
    175 C58         5.9100    0.0500    3.6370 c3        1 MOL     -0.239160
    176 H77         6.9450    0.3860    3.6840 h1        1 MOL      0.086001
    177 H78         5.3700    0.4150    4.5110 h1        1 MOL      0.086001
    178 H79         5.8820   -1.0390    3.6210 h1        1 MOL      0.086001
    179 H80         5.3760    0.0730    1.5470 hn        1 MOL     -0.117142
    180 Ca1        -2.3370   -0.2800   -1.3200 Ca        1 MOL      1.736987
    181 O27        -0.6820   -0.5350   -3.4200 oh        1 MOL     -0.879327
    182 H81         0.0130   -1.1940   -3.3020 ho        1 MOL      0.414672
    183 H82        -0.9810   -0.6780   -4.3190 ho        1 MOL      0.414672
@<TRIPOS>BOND
     1    1    2 1   
     2    1    4 1   
     3    1    5 1   
     4    1    6 1   
     5    2    3 2   
     6    2    7 1   
     7    7    8 1   
     8    7   15 1   
     9    8    9 1   
    10    8   11 1   
    11    8   16 1   
    12    9   10 2   
    13    9   19 1   
    14   11   12 1   
    15   11   17 1   
    16   11   18 1   
    17   12   13 1   
    18   12   14 1   
    19   19   20 1   
    20   19   27 1   
    21   20   21 1   
    22   20   23 1   
    23   20   28 1   
    24   21   22 2   
    25   21   38 1   
    26   23   24 1   
    27   23   25 1   
    28   23   29 1   
    29   24   26 1   
    30   24   30 1   
    31   24   31 1   
    32   25   32 1   
    33   25   33 1   
    34   25   34 1   
    35   26   35 1   
    36   26   36 1   
    37   26   37 1   
    38   38   39 1   
    39   38   46 1   
    40   39   40 1   
    41   39   42 1   
    42   39   47 1   
    43   40   41 2   
    44   40   50 1   
    45   42   43 1   
    46   42   48 1   
    47   42   49 1   
    48   43   44 1   
    49   43   45 1   
    50   50   51 1   
    51   50   54 1   
    52   51   52 1   
    53   51   55 1   
    54   51   56 1   
    55   52   53 2   
    56   52   57 1   
    57   57   58 1   
    58   57   65 1   
    59   58   59 1   
    60   58   61 1   
    61   58   66 1   
    62   59   60 2   
    63   59   69 1   
    64   61   62 1   
    65   61   67 1   
    66   61   68 1   
    67   62   63 1   
    68   62   64 1   
    69   69   70 1   
    70   69   73 1   
    71   70   71 1   
    72   70   74 1   
    73   70   75 1   
    74   71   72 2   
    75   71   76 1   
    76   76   77 1   
    77   76   85 1   
    78   77   78 1   
    79   77   80 1   
    80   77   86 1   
    81   78   79 2   
    82   78   93 1   
    83   80   81 1   
    84   80   87 1   
    85   80   88 1   
    86   81   82 1   
    87   81   89 1   
    88   81   90 1   
    89   82   83 1   
    90   82   84 2   
    91   83   91 1   
    92   83   92 1   
    93   93   94 1   
    94   93  100 1   
    95   94   95 1   
    96   94   97 1   
    97   94  101 1   
    98   95   96 2   
    99   95  109 1   
   100   97   98 1   
   101   97   99 1   
   102   97  102 1   
   103   98  103 1   
   104   98  104 1   
   105   98  105 1   
   106   99  106 1   
   107   99  107 1   
   108   99  108 1   
   109  109  110 1   
   110  109  117 1   
   111  110  111 1   
   112  110  113 1   
   113  110  118 1   
   114  111  112 2   
   115  111  123 1   
   116  113  114 1   
   117  113  119 1   
   118  113  120 1   
   119  114  115 1   
   120  114  116 2   
   121  115  121 1   
   122  115  122 1   
   123  123  124 1   
   124  123  135 1   
   125  124  125 1   
   126  124  127 1   
   127  124  136 1   
   128  125  126 2   
   129  125  144 1   
   130  127  128 1   
   131  127  137 1   
   132  127  138 1   
   133  128  129 ar  
   134  128  130 ar  
   135  129  131 ar  
   136  129  139 1   
   137  130  132 ar  
   138  130  140 1   
   139  131  133 ar  
   140  131  141 1   
   141  132  133 ar  
   142  132  142 1   
   143  133  134 1   
   144  134  143 1   
   145  144  145 1   
   146  144  153 1   
   147  145  146 1   
   148  145  148 1   
   149  145  154 1   
   150  146  147 2   
   151  146  159 1   
   152  148  149 1   
   153  148  155 1   
   154  148  156 1   
   155  149  150 1   
   156  149  157 1   
   157  149  158 1   
   158  150  151 1   
   159  150  152 1   
   160  159  160 1   
   161  159  168 1   
   162  160  161 1   
   163  160  163 1   
   164  160  169 1   
   165  161  162 2   
   166  161  174 1   
   167  163  164 1   
   168  163  170 1   
   169  163  171 1   
   170  164  165 1   
   171  164  172 1   
   172  164  173 1   
   173  165  166 1   
   174  165  167 1   
   175  174  175 1   
   176  174  179 1   
   177  175  176 1   
   178  175  177 1   
   179  175  178 1   
   180  181  182 1   
   181  181  183 1   
@<TRIPOS>SUBSTRUCTURE
     1 MOL         1 TEMP              0 ****  ****    0 ROOT
