@<TRIPOS>MOLECULE
MOL
  189   185     1     0     0
SMALL
resp


@<TRIPOS>ATOM
      1 C1         -0.1260    3.5640    5.0030 c3        1 MOL     -0.407096
      2 C2         -0.5470    3.0590    3.5510 c         1 MOL      0.677241
      3 O1          0.1860    3.2780    2.6050 o         1 MOL     -0.594368
      4 H1         -0.7850    3.1190    5.7480 hc        1 MOL      0.098422
      5 H2          0.9040    3.2700    5.2070 hc        1 MOL      0.098422
      6 H3         -0.2100    4.6500    5.0490 hc        1 MOL      0.098422
      7 N1         -1.7300    2.4270    3.4440 n         1 MOL     -0.490088
      8 C3         -2.3460    1.9950    2.1640 c3        1 MOL      0.090608
      9 C4         -2.8030    3.1770    1.2980 c         1 MOL      0.416523
     10 O2         -3.9630    3.6090    1.5310 o         1 MOL     -0.481952
     11 C5         -3.4840    0.9910    2.4570 c3        1 MOL     -0.293843
     12 C6         -4.1390    0.3080    1.2410 c         1 MOL      0.786291
     13 O3         -3.5430    0.2200    0.1860 o         1 MOL     -0.687103
     14 O4         -5.3300   -0.1010    1.3540 o         1 MOL     -0.687103
     15 H4         -2.3270    2.4450    4.2600 hn        1 MOL      0.308438
     16 H5         -1.5800    1.4030    1.6610 h1        1 MOL      0.048804
     17 H6         -4.2520    1.4800    3.0490 hc        1 MOL      0.077035
     18 H7         -3.0760    0.1580    3.0310 hc        1 MOL      0.077035
     19 N2         -1.9580    3.7140    0.4260 n         1 MOL     -0.295233
     20 C7         -2.3470    4.9670   -0.2280 c3        1 MOL      0.058132
     21 C8         -3.3660    4.8240   -1.3390 c         1 MOL      0.446264
     22 O5         -4.1940    5.7390   -1.5860 o         1 MOL     -0.574535
     23 C9         -1.0890    5.5680   -0.8140 c3        1 MOL     -0.279602
     24 C10        -0.1050    6.1300    0.2570 c3        1 MOL      0.181245
     25 C11        -0.6620    7.1210    1.2710 c3        1 MOL     -0.060963
     26 C12         0.3940    8.0240    1.8510 c3        1 MOL      0.029281
     27 N3          1.2130    7.4370    2.9530 n4        1 MOL     -0.412924
     28 H8         -1.0670    3.3010    0.1900 hn        1 MOL      0.349393
     29 H9         -2.8080    5.6260    0.4940 h1        1 MOL      0.052113
     30 H10        -1.4330    6.4340   -1.3860 hc        1 MOL      0.097022
     31 H11        -0.5200    4.9250   -1.4860 hc        1 MOL      0.097022
     32 H12         0.6770    6.7230   -0.2180 hc        1 MOL     -0.030877
     33 H13         0.4100    5.3020    0.7510 hc        1 MOL     -0.030877
     34 H14        -1.1420    6.6520    2.1260 hc        1 MOL      0.049824
     35 H15        -1.3600    7.7130    0.6790 hc        1 MOL      0.049824
     36 H16        -0.0990    8.9330    2.1950 hx        1 MOL      0.080813
     37 H17         1.0740    8.3370    1.0540 hx        1 MOL      0.080813
     38 H18         2.0650    7.9830    3.0620 hn        1 MOL      0.342321
     39 H19         0.7310    7.5680    3.8240 hn        1 MOL      0.342321
     40 H20         1.4090    6.4610    2.7620 hn        1 MOL      0.342321
     41 N4         -3.4890    3.6900   -2.0260 n         1 MOL     -0.271171
     42 C13        -4.5640    3.4990   -3.0740 c3        1 MOL      0.002888
     43 C14        -5.8320    2.8120   -2.4550 c         1 MOL      0.333130
     44 O6         -6.7250    2.3880   -3.1870 o         1 MOL     -0.522728
     45 C15        -4.0950    2.6690   -4.2780 c3        1 MOL     -0.314219
     46 C16        -3.2390    1.4160   -4.0030 c         1 MOL      0.790945
     47 O7         -3.1200    0.8540   -2.9090 o         1 MOL     -0.721954
     48 O8         -2.5420    1.0500   -5.0020 o         1 MOL     -0.721954
     49 H21        -2.9280    2.9050   -1.7590 hn        1 MOL      0.208345
     50 H22        -4.8680    4.4720   -3.4650 h1        1 MOL      0.131004
     51 H23        -3.5640    3.3610   -4.9220 hc        1 MOL      0.097528
     52 H24        -4.9310    2.2710   -4.8400 hc        1 MOL      0.097528
     53 N5         -5.8010    2.6170   -1.1810 n         1 MOL     -0.033179
     54 C17        -6.8650    2.0610   -0.3110 c3        1 MOL     -0.106054
     55 C18        -7.3350    0.6820   -0.7570 c         1 MOL      0.561305
     56 O9         -8.5380    0.4730   -0.7070 o         1 MOL     -0.592596
     57 H25        -4.9950    2.9400   -0.6730 hn        1 MOL      0.092766
     58 H26        -7.6810    2.7810   -0.3820 h1        1 MOL      0.076805
     59 H27        -6.4980    2.0510    0.7170 h1        1 MOL      0.076805
     60 N6         -6.4890   -0.2370   -1.2330 n         1 MOL     -0.159648
     61 C19        -6.8400   -1.5700   -1.7290 c3        1 MOL     -0.002400
     62 C20        -7.0300   -2.6380   -0.6030 c         1 MOL      0.345724
     63 O10        -7.5280   -3.7550   -0.8600 o         1 MOL     -0.522364
     64 C21        -5.9410   -2.0260   -2.8430 c3        1 MOL     -0.309221
     65 C22        -4.4750   -2.2590   -2.4880 c         1 MOL      0.760822
     66 O11        -3.6150   -2.5040   -3.3900 o         1 MOL     -0.638165
     67 O12        -4.0980   -2.4560   -1.3480 o         1 MOL     -0.638165
     68 H28        -5.5410   -0.1780   -0.8980 hn        1 MOL      0.044729
     69 H29        -7.7870   -1.4900   -2.2440 h1        1 MOL      0.123466
     70 H30        -6.0320   -1.2970   -3.6490 hc        1 MOL      0.113138
     71 H31        -6.3970   -2.9450   -3.2240 hc        1 MOL      0.113138
     72 N7         -6.6250   -2.3980    0.6710 n         1 MOL     -0.161196
     73 C23        -6.6960   -3.2970    1.8180 c3        1 MOL     -0.183732
     74 C24        -5.4880   -4.1230    1.9910 c         1 MOL      0.534039
     75 O13        -5.4650   -5.0910    2.7960 o         1 MOL     -0.605127
     76 H32        -6.1080   -1.5440    0.8430 hn        1 MOL      0.212950
     77 H33        -7.4070   -4.0980    1.6560 h1        1 MOL      0.111030
     78 H34        -6.9920   -2.7700    2.7240 h1        1 MOL      0.111030
     79 N8         -4.4110   -3.8330    1.3050 n         1 MOL     -0.239533
     80 C25        -3.0680   -4.4340    1.5260 c3        1 MOL     -0.180228
     81 C26        -1.9400   -3.3830    1.4690 c         1 MOL      0.678549
     82 O14        -2.1260   -2.3380    0.8130 o         1 MOL     -0.693479
     83 C27        -2.7720   -5.4650    0.4530 c3        1 MOL      0.496695
     84 C28        -3.4580   -6.8090    0.6740 c3        1 MOL     -0.334910
     85 O15        -2.9700   -4.9890   -0.8290 oh        1 MOL     -0.588534
     86 H35        -4.4590   -2.9860    0.7590 hn        1 MOL      0.243348
     87 H36        -3.0130   -4.9700    2.4770 h1        1 MOL      0.094646
     88 H37        -1.6850   -5.5660    0.5020 h1        1 MOL     -0.051045
     89 H38        -3.2050   -4.0600   -0.7090 ho        1 MOL      0.367303
     90 H39        -2.8990   -7.2160    1.5130 hc        1 MOL      0.080701
     91 H40        -4.5150   -6.8590    0.9550 hc        1 MOL      0.080701
     92 H41        -3.2210   -7.5130   -0.1260 hc        1 MOL      0.080701
     93 N9         -0.7690   -3.6550    2.0320 n         1 MOL     -0.613960
     94 C29         0.2890   -2.6410    2.0650 c3        1 MOL      0.021025
     95 C30         1.6120   -3.2490    1.4700 c         1 MOL      0.569427
     96 O16         1.9950   -4.3560    1.8570 o         1 MOL     -0.556270
     97 C31         0.5400   -2.2360    3.5490 c3        1 MOL      0.138418
     98 C32        -0.7020   -1.3570    4.0440 c3        1 MOL      0.046595
     99 C33         1.8220   -1.4100    3.9070 c3        1 MOL     -0.282071
    100 C34        -0.7520   -1.3280    5.6390 c3        1 MOL     -0.253881
    101 H42        -0.6360   -4.5340    2.5170 hn        1 MOL      0.335366
    102 H43         0.0600   -1.7000    1.5500 h1        1 MOL      0.144981
    103 H44         0.5450   -3.1590    4.1140 hc        1 MOL      0.012661
    104 H45        -1.6020   -1.8390    3.6570 hc        1 MOL      0.023420
    105 H46        -0.6760   -0.3260    3.6890 hc        1 MOL      0.023420
    106 H47         2.7150   -1.9630    3.6160 hc        1 MOL      0.055585
    107 H48         1.8190   -0.4970    3.3030 hc        1 MOL      0.055585
    108 H49         1.8920   -1.2060    4.9730 hc        1 MOL      0.055585
    109 H50        -1.6840   -0.8150    5.8880 hc        1 MOL      0.061094
    110 H51        -0.7570   -2.3460    6.0320 hc        1 MOL      0.061094
    111 H52         0.0840   -0.7760    6.0770 hc        1 MOL      0.061094
    112 N10         2.3360   -2.5700    0.5150 n         1 MOL     -0.316655
    113 C35         3.6310   -2.9920   -0.0680 c3        1 MOL      0.041006
    114 C36         4.8440   -2.4630    0.6670 c         1 MOL      0.419507
    115 O17         4.8020   -1.7580    1.6380 o         1 MOL     -0.383103
    116 C37         3.6320   -2.4610   -1.4820 c3        1 MOL      0.008494
    117 C38         2.3450   -2.8430   -2.1340 c3        1 MOL     -0.084849
    118 O18         3.8640   -1.0630   -1.5660 oh        1 MOL     -0.312383
    119 H53         1.8380   -1.8580    0.0110 hn        1 MOL      0.189214
    120 H54         3.6210   -4.0860   -0.0580 h1        1 MOL      0.077581
    121 H55         4.4510   -2.9550   -1.9990 h1        1 MOL      0.001988
    122 H56         3.6930   -1.0010   -2.5080 ho        1 MOL      0.335795
    123 H57         1.6760   -1.9840   -2.0510 hc        1 MOL      0.043934
    124 H58         2.5360   -2.9460   -3.1980 hc        1 MOL      0.043934
    125 H59         2.0330   -3.8380   -1.8180 hc        1 MOL      0.043934
    126 N11         5.9430   -2.9930    0.1580 n         1 MOL     -0.345000
    127 C39         7.2750   -2.6110    0.6980 c3        1 MOL     -0.120467
    128 C40         7.5620   -1.1350    0.4400 c         1 MOL      0.184703
    129 O19         8.1280   -0.4810    1.3400 o         1 MOL     -0.452476
    130 C41         8.3920   -3.3350   -0.0900 c3        1 MOL      0.271368
    131 C42         8.6140   -4.7580    0.3040 c3        1 MOL     -0.336213
    132 O20         8.1220   -3.4530   -1.4540 oh        1 MOL     -0.649969
    133 H60         5.9290   -3.7320   -0.5260 hn        1 MOL      0.261184
    134 H61         7.2980   -2.8600    1.7580 h1        1 MOL      0.171289
    135 H62         9.3600   -2.8480   -0.0350 h1        1 MOL      0.069739
    136 H63         8.3920   -4.2920   -1.8340 ho        1 MOL      0.425204
    137 H64         7.7330   -5.3840    0.1220 hc        1 MOL      0.095806
    138 H65         9.3630   -5.2720   -0.2820 hc        1 MOL      0.095806
    139 H66         8.8730   -4.8010    1.3580 hc        1 MOL      0.095806
    140 N12         7.0160   -0.5900   -0.6530 n         1 MOL      0.122164
    141 C43         7.0980    0.7920   -1.0780 c3        1 MOL     -0.121966
    142 C44         6.1650    1.7710   -0.2590 c         1 MOL      0.351454
    143 O21         6.6510    2.7130    0.3450 o         1 MOL     -0.442497
    144 C45         6.8840    0.9040   -2.5740 c3        1 MOL     -0.093876
    145 C46         8.0200    0.3300   -3.3700 c3        1 MOL     -0.012008
    146 C47         9.3820    1.1190   -3.2990 c3        1 MOL      0.050700
    147 C48        10.2560    0.5880   -4.4360 c3        1 MOL     -0.045403
    148 N13        11.4440    1.4530   -4.3700 n4        1 MOL     -0.262806
    149 H67         6.6770   -1.2160   -1.3670 hn        1 MOL      0.131952
    150 H68         8.0960    1.1820   -0.8610 h1        1 MOL      0.036850
    151 H69         6.8660    1.9650   -2.8450 hc        1 MOL      0.050760
    152 H70         5.8740    0.5620   -2.8140 hc        1 MOL      0.050760
    153 H71         7.6980    0.3950   -4.4110 hc        1 MOL      0.004494
    154 H72         8.1580   -0.7220   -3.1490 hc        1 MOL      0.004494
    155 H73         9.9900    1.0320   -2.3990 hc        1 MOL      0.043099
    156 H74         9.1890    2.1770   -3.4510 hc        1 MOL      0.043099
    157 H75         9.8190    0.7610   -5.4270 hx        1 MOL      0.098633
    158 H76        10.5660   -0.4380   -4.2480 hx        1 MOL      0.098633
    159 H77        11.9500    1.1970   -3.5310 hn        1 MOL      0.252942
    160 H78        12.0210    1.2330   -5.1740 hn        1 MOL      0.252942
    161 H79        11.2090    2.4360   -4.4100 hn        1 MOL      0.252942
    162 N14         4.8810    1.3830   -0.1020 n         1 MOL     -0.086579
    163 C49         3.9890    2.0900    0.8110 c3        1 MOL     -0.276963
    164 C50         4.6230    2.3750    2.1940 c         1 MOL      0.472913
    165 O22         4.8450    3.4950    2.4940 o         1 MOL     -0.521396
    166 C51         2.6390    1.3130    0.8820 c3        1 MOL      0.372809
    167 C52         1.8550    1.6200   -0.4440 c3        1 MOL     -0.002598
    168 C53         0.5930    0.7580   -0.6680 c         1 MOL      0.725824
    169 O23        -0.5060    1.3000   -0.8250 o         1 MOL     -0.803578
    170 O24         0.6240   -0.4660   -0.6430 o         1 MOL     -0.803578
    171 H80         4.4750    0.6380   -0.6630 hn        1 MOL      0.089992
    172 H81         3.8130    3.0800    0.3780 h1        1 MOL      0.095239
    173 H82         2.0820    1.5620    1.7830 hc        1 MOL     -0.094981
    174 H83         2.8380    0.2420    0.8410 hc        1 MOL     -0.094981
    175 H84         2.5190    1.5480   -1.3050 hc        1 MOL     -0.038325
    176 H85         1.6010    2.6740   -0.3690 hc        1 MOL     -0.038325
    177 N15         4.9240    1.2990    2.9850 n         1 MOL     -0.139001
    178 C54         5.5690    1.4730    4.2620 c3        1 MOL     -0.178181
    179 H86         4.8260    1.4030    5.0560 h1        1 MOL      0.079297
    180 H87         6.3200    0.6960    4.3990 h1        1 MOL      0.079297
    181 H88         6.0470    2.4520    4.2980 h1        1 MOL      0.079297
    182 H89         4.8340    0.3520    2.6430 hn        1 MOL      0.189676
    183 Ca1        -1.8880   -0.9460   -1.3800 Ca        1 MOL      1.794942
    184 O25        -1.0180   -3.5860   -2.1750 oh        1 MOL     -0.829961
    185 H90        -0.5580   -3.9310   -2.9490 ho        1 MOL      0.384468
    186 H91        -1.7580   -4.1730   -2.0530 ho        1 MOL      0.384468
    187 O26        -1.0600   -0.8730   -3.8260 oh        1 MOL     -0.829961
    188 H92        -0.2680   -0.9730   -4.3560 ho        1 MOL      0.384468
    189 H93        -1.4630   -0.0620   -4.1360 ho        1 MOL      0.384468
@<TRIPOS>BOND
     1    1    2 1   
     2    1    4 1   
     3    1    5 1   
     4    1    6 1   
     5    2    3 2   
     6    2    7 1   
     7    7    8 1   
     8    7   15 1   
     9    8    9 1   
    10    8   11 1   
    11    8   16 1   
    12    9   10 2   
    13    9   19 1   
    14   11   12 1   
    15   11   17 1   
    16   11   18 1   
    17   12   13 1   
    18   12   14 1   
    19   19   20 1   
    20   19   28 1   
    21   20   21 1   
    22   20   23 1   
    23   20   29 1   
    24   21   22 2   
    25   21   41 1   
    26   23   24 1   
    27   23   30 1   
    28   23   31 1   
    29   24   25 1   
    30   24   32 1   
    31   24   33 1   
    32   25   26 1   
    33   25   34 1   
    34   25   35 1   
    35   26   27 1   
    36   26   36 1   
    37   26   37 1   
    38   27   38 1   
    39   27   39 1   
    40   27   40 1   
    41   41   42 1   
    42   41   49 1   
    43   42   43 1   
    44   42   45 1   
    45   42   50 1   
    46   43   44 2   
    47   43   53 1   
    48   45   46 1   
    49   45   51 1   
    50   45   52 1   
    51   46   47 1   
    52   46   48 1   
    53   53   54 1   
    54   53   57 1   
    55   54   55 1   
    56   54   58 1   
    57   54   59 1   
    58   55   56 2   
    59   55   60 1   
    60   60   61 1   
    61   60   68 1   
    62   61   62 1   
    63   61   64 1   
    64   61   69 1   
    65   62   63 2   
    66   62   72 1   
    67   64   65 1   
    68   64   70 1   
    69   64   71 1   
    70   65   66 1   
    71   65   67 1   
    72   72   73 1   
    73   72   76 1   
    74   73   74 1   
    75   73   77 1   
    76   73   78 1   
    77   74   75 2   
    78   74   79 1   
    79   79   80 1   
    80   79   86 1   
    81   80   81 1   
    82   80   83 1   
    83   80   87 1   
    84   81   82 2   
    85   81   93 1   
    86   83   84 1   
    87   83   85 1   
    88   83   88 1   
    89   84   90 1   
    90   84   91 1   
    91   84   92 1   
    92   85   89 1   
    93   93   94 1   
    94   93  101 1   
    95   94   95 1   
    96   94   97 1   
    97   94  102 1   
    98   95   96 2   
    99   95  112 1   
   100   97   98 1   
   101   97   99 1   
   102   97  103 1   
   103   98  100 1   
   104   98  104 1   
   105   98  105 1   
   106   99  106 1   
   107   99  107 1   
   108   99  108 1   
   109  100  109 1   
   110  100  110 1   
   111  100  111 1   
   112  112  113 1   
   113  112  119 1   
   114  113  114 1   
   115  113  116 1   
   116  113  120 1   
   117  114  115 2   
   118  114  126 1   
   119  116  117 1   
   120  116  118 1   
   121  116  121 1   
   122  117  123 1   
   123  117  124 1   
   124  117  125 1   
   125  118  122 1   
   126  126  127 1   
   127  126  133 1   
   128  127  128 1   
   129  127  130 1   
   130  127  134 1   
   131  128  129 2   
   132  128  140 1   
   133  130  131 1   
   134  130  132 1   
   135  130  135 1   
   136  131  137 1   
   137  131  138 1   
   138  131  139 1   
   139  132  136 1   
   140  140  141 1   
   141  140  149 1   
   142  141  142 1   
   143  141  144 1   
   144  141  150 1   
   145  142  143 2   
   146  142  162 1   
   147  144  145 1   
   148  144  151 1   
   149  144  152 1   
   150  145  146 1   
   151  145  153 1   
   152  145  154 1   
   153  146  147 1   
   154  146  155 1   
   155  146  156 1   
   156  147  148 1   
   157  147  157 1   
   158  147  158 1   
   159  148  159 1   
   160  148  160 1   
   161  148  161 1   
   162  162  163 1   
   163  162  171 1   
   164  163  164 1   
   165  163  166 1   
   166  163  172 1   
   167  164  165 2   
   168  164  177 1   
   169  166  167 1   
   170  166  173 1   
   171  166  174 1   
   172  167  168 1   
   173  167  175 1   
   174  167  176 1   
   175  168  169 1   
   176  168  170 1   
   177  177  178 1   
   178  177  182 1   
   179  178  179 1   
   180  178  180 1   
   181  178  181 1   
   182  184  185 1   
   183  184  186 1   
   184  187  188 1   
   185  187  189 1   
@<TRIPOS>SUBSTRUCTURE
     1 MOL         1 TEMP              0 ****  ****    0 ROOT
