@<TRIPOS>MOLECULE
MOL
  175   173     1     0     0
SMALL
resp


@<TRIPOS>ATOM
      1 C1          0.8430    4.2990    5.2000 c3        1 MOL     -0.447340
      2 C2          0.2980    4.2160    3.7820 c         1 MOL      0.798367
      3 O1          1.0340    4.1850    2.8110 o         1 MOL     -0.562081
      4 H1          0.7330    3.3320    5.6880 hc        1 MOL      0.108331
      5 H2          1.8990    4.5710    5.1680 hc        1 MOL      0.108331
      6 H3          0.2900    5.0530    5.7580 hc        1 MOL      0.108331
      7 N1         -1.0760    4.1760    3.6540 n         1 MOL     -0.780309
      8 C3         -1.8100    3.8130    2.4460 c3        1 MOL      0.235085
      9 C4         -1.9840    4.9910    1.5270 c         1 MOL      0.512173
     10 O2         -2.1130    6.1250    1.9630 o         1 MOL     -0.575998
     11 C5         -3.1420    3.2770    2.8350 c3        1 MOL     -0.145795
     12 C6         -4.0030    2.8150    1.6070 c         1 MOL      0.606927
     13 O3         -5.1950    3.2310    1.5540 o         1 MOL     -0.621988
     14 O4         -3.5210    1.9890    0.7980 o         1 MOL     -0.621988
     15 H4         -1.5800    4.5850    4.4310 hn        1 MOL      0.343040
     16 H5         -1.1930    3.0900    1.9250 h1        1 MOL      0.105620
     17 H6         -3.7630    3.9630    3.4170 hc        1 MOL      0.014971
     18 H7         -2.9590    2.4060    3.4600 hc        1 MOL      0.014971
     19 N2         -1.9930    4.6580    0.2610 n         1 MOL     -0.336654
     20 C7         -2.5620    5.4440   -0.8600 c3        1 MOL      0.249331
     21 C8         -3.4750    4.8190   -1.9260 c         1 MOL      0.514174
     22 O5         -3.7240    5.3870   -2.9700 o         1 MOL     -0.580887
     23 C9         -1.3300    6.2010   -1.4950 c3        1 MOL     -0.317306
     24 H8         -1.5060    3.8020    0.0690 hn        1 MOL      0.200987
     25 H9         -3.2320    6.1810   -0.4220 h1        1 MOL      0.017718
     26 H10        -0.6260    5.4780   -1.9050 hc        1 MOL      0.072530
     27 H11        -1.6230    6.9790   -2.2010 hc        1 MOL      0.072530
     28 H12        -0.8010    6.7380   -0.7030 hc        1 MOL      0.072530
     29 N3         -4.1390    3.7160   -1.6500 n         1 MOL     -0.266029
     30 C10        -4.9800    3.1500   -2.7120 c3        1 MOL     -0.022986
     31 C11        -6.2280    2.4130   -2.1980 c         1 MOL      0.403147
     32 O6         -7.2380    2.4250   -2.9480 o         1 MOL     -0.551362
     33 C12        -4.2200    2.1030   -3.5840 c3        1 MOL     -0.118240
     34 C13        -3.3470    1.1650   -2.8720 c         1 MOL      0.734012
     35 O7         -2.1350    1.0150   -3.1910 o         1 MOL     -0.714691
     36 O8         -3.8960    0.4610   -2.0240 o         1 MOL     -0.714691
     37 H13        -4.0080    3.1950   -0.7860 hn        1 MOL      0.078814
     38 H14        -5.3450    3.9090   -3.4070 h1        1 MOL      0.119592
     39 H15        -3.5640    2.5630   -4.3320 hc        1 MOL      0.029724
     40 H16        -4.8990    1.5370   -4.2130 hc        1 MOL      0.029724
     41 N4         -6.3440    1.9810   -0.9130 n         1 MOL     -0.173297
     42 C14        -7.4690    1.1430   -0.4720 c3        1 MOL     -0.041200
     43 C15        -7.5130   -0.3570   -1.0050 c         1 MOL      0.415949
     44 O9         -8.6020   -0.9540   -1.0930 o         1 MOL     -0.591247
     45 H17        -5.6280    2.1200   -0.2210 hn        1 MOL      0.161754
     46 H18        -8.4420    1.6020   -0.6370 h1        1 MOL      0.052931
     47 H19        -7.3680    1.0460    0.6140 h1        1 MOL      0.052931
     48 N5         -6.3800   -1.0260   -1.2140 n         1 MOL     -0.065060
     49 C16        -6.2550   -2.3670   -1.8730 c3        1 MOL     -0.140497
     50 C17        -6.1680   -3.5140   -0.9150 c         1 MOL      0.533006
     51 O10        -6.0160   -4.6850   -1.2470 o         1 MOL     -0.515188
     52 C18        -5.1350   -2.2920   -2.8720 c3        1 MOL     -0.068728
     53 C19        -3.7210   -2.3200   -2.2770 c         1 MOL      0.409997
     54 N6         -2.7980   -2.3180   -3.1840 n         1 MOL     -0.578969
     55 O11        -3.4850   -2.2280   -1.0420 o         1 MOL     -0.277917
     56 H20        -5.5480   -0.4740   -1.0920 hn        1 MOL      0.134443
     57 H21        -7.1390   -2.5150   -2.4820 h1        1 MOL      0.132804
     58 H22        -5.2140   -1.3820   -3.4560 hc        1 MOL      0.041197
     59 H23        -5.1390   -3.1290   -3.5820 hc        1 MOL      0.041197
     60 H24        -3.0680   -2.4230   -4.1480 hn        1 MOL      0.325424
     61 H25        -1.8440   -2.2660   -2.8500 hn        1 MOL      0.325424
     62 N7         -6.2610   -3.1600    0.4160 n         1 MOL     -0.470579
     63 C20        -6.1940   -4.1440    1.5050 c3        1 MOL      0.015476
     64 C21        -4.7280   -4.6580    1.8670 c         1 MOL      0.358901
     65 O12        -4.6520   -5.4850    2.8100 o         1 MOL     -0.572160
     66 H26        -6.0200   -2.2080    0.6380 hn        1 MOL      0.249307
     67 H27        -6.6210   -5.0820    1.1720 h1        1 MOL      0.080295
     68 H28        -6.7760   -3.9110    2.3960 h1        1 MOL      0.080295
     69 N8         -3.6720   -4.1370    1.1930 n         1 MOL      0.041059
     70 C22        -2.3090   -4.4940    1.5100 c3        1 MOL     -0.227754
     71 C23        -1.5280   -3.2380    1.7400 c         1 MOL      0.589585
     72 O13        -1.6290   -2.2410    1.0360 o         1 MOL     -0.554529
     73 C24        -1.6910   -5.3410    0.4030 c3        1 MOL      0.410661
     74 C25        -2.2830   -6.8310    0.3340 c3        1 MOL     -0.321278
     75 O14        -1.9120   -4.7960   -0.9130 oh        1 MOL     -0.611036
     76 H29        -3.8480   -3.3730    0.5520 hn        1 MOL     -0.020951
     77 H30        -2.4080   -5.0840    2.4320 h1        1 MOL      0.093478
     78 H31        -0.6170   -5.3960    0.5780 h1        1 MOL      0.002092
     79 H32        -1.4800   -3.9420   -0.9810 ho        1 MOL      0.365731
     80 H33        -1.8420   -7.5030    1.0640 hc        1 MOL      0.083528
     81 H34        -3.3600   -6.9350    0.4850 hc        1 MOL      0.083528
     82 H35        -2.0100   -7.2660   -0.6340 hc        1 MOL      0.083528
     83 N9         -0.5260   -3.4030    2.6260 n         1 MOL     -0.667250
     84 C26         0.6280   -2.4760    2.4410 c3        1 MOL      0.116825
     85 C27         1.3700   -2.8900    1.1750 c         1 MOL      0.407998
     86 O15         1.5530   -4.0940    0.9180 o         1 MOL     -0.551595
     87 C28         1.5620   -2.3440    3.7360 c3        1 MOL      0.170007
     88 C29         0.7950   -1.9410    4.9440 c3        1 MOL      0.151883
     89 C30         2.6580   -1.3700    3.4370 c3        1 MOL     -0.160961
     90 C31         1.6950   -1.8950    6.2070 c3        1 MOL     -0.173450
     91 H36        -0.4420   -4.2810    3.1160 hn        1 MOL      0.349582
     92 H37         0.2550   -1.4510    2.3700 h1        1 MOL      0.096220
     93 H38         2.0390   -3.3070    3.8670 hc        1 MOL     -0.029642
     94 H39         0.0990   -2.7540    5.1820 hc        1 MOL     -0.048558
     95 H40         0.1930   -1.0510    4.7600 hc        1 MOL     -0.048558
     96 H41         3.3250   -1.1970    4.2870 hc        1 MOL      0.012066
     97 H42         3.3460   -1.7540    2.6790 hc        1 MOL      0.012066
     98 H43         2.2130   -0.3980    3.2380 hc        1 MOL      0.012066
     99 H44         2.3880   -1.0520    6.1590 hc        1 MOL      0.033465
    100 H45         1.1250   -1.7660    7.1360 hc        1 MOL      0.033465
    101 H46         2.1760   -2.8580    6.4010 hc        1 MOL      0.033465
    102 N10         1.8110   -1.8720    0.3900 n         1 MOL     -0.099270
    103 C32         2.5870   -2.0090   -0.8290 c3        1 MOL      0.185538
    104 C33         4.0760   -1.6670   -0.5550 c         1 MOL      0.347894
    105 O16         4.3640   -0.9890    0.4010 o         1 MOL     -0.349875
    106 C34         1.9320   -1.1790   -1.9500 c3        1 MOL     -0.164053
    107 C35         0.5440   -1.6450   -2.3990 c         1 MOL      0.739531
    108 O17        -0.4780   -1.2700   -1.7570 o         1 MOL     -0.684629
    109 O18         0.4710   -2.4750   -3.2810 o         1 MOL     -0.684629
    110 H47         1.4770   -0.9600    0.6420 hn        1 MOL     -0.009728
    111 H48         2.5460   -3.0590   -1.1060 h1        1 MOL      0.024068
    112 H49         2.6250   -1.2960   -2.7830 hc        1 MOL      0.010134
    113 H50         1.8740   -0.1060   -1.8060 hc        1 MOL      0.010134
    114 N11         4.9660   -1.9520   -1.5230 n         1 MOL     -0.584393
    115 C36         6.3650   -1.6860   -1.3130 c3        1 MOL      0.377055
    116 C37         6.6110   -0.1170   -1.2450 c         1 MOL      0.363259
    117 O19         7.2950    0.2630   -0.3200 o         1 MOL     -0.481387
    118 C38         7.2410   -2.3740   -2.3290 c3        1 MOL     -0.310056
    119 C39         8.6940   -2.1450   -2.0550 ca        1 MOL      0.177289
    120 C40         9.1980   -2.5940   -0.8490 ca        1 MOL     -0.225009
    121 C41         9.4830   -1.3290   -2.8720 ca        1 MOL     -0.225009
    122 C42        10.4700   -2.2540   -0.4930 ca        1 MOL     -0.059914
    123 C43        10.7760   -0.9690   -2.5070 ca        1 MOL     -0.059914
    124 C44        11.2800   -1.4750   -1.3110 ca        1 MOL     -0.147962
    125 H51         4.7640   -2.5010   -2.3540 hn        1 MOL      0.324932
    126 H52         6.5960   -2.0370   -0.3100 h1        1 MOL      0.053366
    127 H53         6.9610   -2.0850   -3.3460 hc        1 MOL      0.079195
    128 H54         7.1090   -3.4460   -2.2050 hc        1 MOL      0.079195
    129 H55         8.5500   -3.0670   -0.1270 ha        1 MOL      0.126795
    130 H56         9.0640   -0.9500   -3.7900 ha        1 MOL      0.126795
    131 H57        10.7660   -2.6290    0.4730 ha        1 MOL      0.103109
    132 H58        11.3490   -0.3080   -3.1250 ha        1 MOL      0.103109
    133 H59        12.3000   -1.2370   -1.0140 ha        1 MOL      0.101228
    134 N12         6.0810    0.7560   -2.1630 n         1 MOL     -0.149746
    135 C45         6.3240    2.1380   -1.9270 c3        1 MOL      0.073887
    136 C46         5.6810    2.5910   -0.6430 c         1 MOL      0.184038
    137 O20         5.9170    3.7100   -0.1500 o         1 MOL     -0.484428
    138 C47         5.7710    2.8410   -3.1090 c3        1 MOL     -0.092796
    139 C48         5.6140    1.7220   -4.1720 c3        1 MOL     -0.094868
    140 C49         5.2100    0.5400   -3.3050 c3        1 MOL     -0.131959
    141 H60         7.4010    2.2860   -1.9250 h1        1 MOL      0.093156
    142 H61         4.7930    3.2560   -2.8970 hc        1 MOL      0.064459
    143 H62         6.4590    3.6070   -3.4710 hc        1 MOL      0.064459
    144 H63         4.8000    1.9090   -4.8600 hc        1 MOL      0.047529
    145 H64         6.5050    1.4240   -4.7410 hc        1 MOL      0.047529
    146 H65         4.1640    0.7360   -3.0460 h1        1 MOL      0.110970
    147 H66         5.4120   -0.3510   -3.8960 h1        1 MOL      0.110970
    148 N13         4.7670    1.7990   -0.0040 n         1 MOL      0.061493
    149 C50         4.1110    2.1590    1.2460 c3        1 MOL     -0.201317
    150 C51         5.0260    1.7780    2.4440 c         1 MOL      0.419658
    151 O21         5.1760    2.4930    3.4810 o         1 MOL     -0.560376
    152 C52         2.6900    1.6130    1.2980 c3        1 MOL     -0.047508
    153 C53         1.8600    2.2140    0.1180 c3        1 MOL     -0.073117
    154 C54         0.4060    1.6690    0.2530 c         1 MOL      0.505361
    155 O22         0.1630    0.6500    0.8990 o         1 MOL     -0.650047
    156 O23        -0.5730    2.2040   -0.3420 o         1 MOL     -0.650047
    157 H67         4.7980    0.8320   -0.3020 hn        1 MOL      0.072008
    158 H68         4.0620    3.2490    1.2150 h1        1 MOL      0.137437
    159 H69         2.3360    1.8150    2.3060 hc        1 MOL      0.083207
    160 H70         2.7280    0.5400    1.1320 hc        1 MOL      0.083207
    161 H71         2.3290    1.8520   -0.7930 hc        1 MOL      0.069830
    162 H72         1.8090    3.3050    0.1300 hc        1 MOL      0.069830
    163 N14         5.7490    0.6810    2.3060 n         1 MOL      0.005757
    164 C55         6.8090    0.2720    3.1620 c3        1 MOL     -0.181002
    165 H73         6.4250   -0.4260    3.9060 h1        1 MOL      0.060601
    166 H74         7.5850   -0.2170    2.5730 h1        1 MOL      0.060601
    167 H75         7.2280    1.1430    3.6650 h1        1 MOL      0.060601
    168 H76         5.5840    0.0010    1.5900 hn        1 MOL      0.105294
    169 Ca1        -2.1800   -0.0090   -0.1660 Ca        1 MOL      1.669249
    170 O24        -1.8110    0.3460    2.6660 oh        1 MOL     -0.831679
    171 H77        -2.0930    0.6870    3.5160 ho        1 MOL      0.404200
    172 H78        -0.8480    0.4280    2.6820 ho        1 MOL      0.404200
    173 O25        -4.6010   -0.4590    1.1950 oh        1 MOL     -0.831679
    174 H79        -5.3460   -0.6320    1.7640 ho        1 MOL      0.404200
    175 H80        -4.2980    0.4120    1.4550 ho        1 MOL      0.404200
@<TRIPOS>BOND
     1    1    2 1   
     2    1    4 1   
     3    1    5 1   
     4    1    6 1   
     5    2    3 2   
     6    2    7 1   
     7    7    8 1   
     8    7   15 1   
     9    8    9 1   
    10    8   11 1   
    11    8   16 1   
    12    9   10 2   
    13    9   19 1   
    14   11   12 1   
    15   11   17 1   
    16   11   18 1   
    17   12   13 1   
    18   12   14 1   
    19   19   20 1   
    20   19   24 1   
    21   20   21 1   
    22   20   23 1   
    23   20   25 1   
    24   21   22 2   
    25   21   29 1   
    26   23   26 1   
    27   23   27 1   
    28   23   28 1   
    29   29   30 1   
    30   29   37 1   
    31   30   31 1   
    32   30   33 1   
    33   30   38 1   
    34   31   32 2   
    35   31   41 1   
    36   33   34 1   
    37   33   39 1   
    38   33   40 1   
    39   34   35 1   
    40   34   36 1   
    41   41   42 1   
    42   41   45 1   
    43   42   43 1   
    44   42   46 1   
    45   42   47 1   
    46   43   44 2   
    47   43   48 1   
    48   48   49 1   
    49   48   56 1   
    50   49   50 1   
    51   49   52 1   
    52   49   57 1   
    53   50   51 2   
    54   50   62 1   
    55   52   53 1   
    56   52   58 1   
    57   52   59 1   
    58   53   54 1   
    59   53   55 2   
    60   54   60 1   
    61   54   61 1   
    62   62   63 1   
    63   62   66 1   
    64   63   64 1   
    65   63   67 1   
    66   63   68 1   
    67   64   65 2   
    68   64   69 1   
    69   69   70 1   
    70   69   76 1   
    71   70   71 1   
    72   70   73 1   
    73   70   77 1   
    74   71   72 2   
    75   71   83 1   
    76   73   74 1   
    77   73   75 1   
    78   73   78 1   
    79   74   80 1   
    80   74   81 1   
    81   74   82 1   
    82   75   79 1   
    83   83   84 1   
    84   83   91 1   
    85   84   85 1   
    86   84   87 1   
    87   84   92 1   
    88   85   86 2   
    89   85  102 1   
    90   87   88 1   
    91   87   89 1   
    92   87   93 1   
    93   88   90 1   
    94   88   94 1   
    95   88   95 1   
    96   89   96 1   
    97   89   97 1   
    98   89   98 1   
    99   90   99 1   
   100   90  100 1   
   101   90  101 1   
   102  102  103 1   
   103  102  110 1   
   104  103  104 1   
   105  103  106 1   
   106  103  111 1   
   107  104  105 2   
   108  104  114 1   
   109  106  107 1   
   110  106  112 1   
   111  106  113 1   
   112  107  108 1   
   113  107  109 1   
   114  114  115 1   
   115  114  125 1   
   116  115  116 1   
   117  115  118 1   
   118  115  126 1   
   119  116  117 2   
   120  116  134 1   
   121  118  119 1   
   122  118  127 1   
   123  118  128 1   
   124  119  120 ar  
   125  119  121 ar  
   126  120  122 ar  
   127  120  129 1   
   128  121  123 ar  
   129  121  130 1   
   130  122  124 ar  
   131  122  131 1   
   132  123  124 ar  
   133  123  132 1   
   134  124  133 1   
   135  134  135 1   
   136  134  140 1   
   137  135  136 1   
   138  135  138 1   
   139  135  141 1   
   140  136  137 2   
   141  136  148 1   
   142  138  139 1   
   143  138  142 1   
   144  138  143 1   
   145  139  140 1   
   146  139  144 1   
   147  139  145 1   
   148  140  146 1   
   149  140  147 1   
   150  148  149 1   
   151  148  157 1   
   152  149  150 1   
   153  149  152 1   
   154  149  158 1   
   155  150  151 2   
   156  150  163 1   
   157  152  153 1   
   158  152  159 1   
   159  152  160 1   
   160  153  154 1   
   161  153  161 1   
   162  153  162 1   
   163  154  155 1   
   164  154  156 1   
   165  163  164 1   
   166  163  168 1   
   167  164  165 1   
   168  164  166 1   
   169  164  167 1   
   170  170  171 1   
   171  170  172 1   
   172  173  174 1   
   173  173  175 1   
@<TRIPOS>SUBSTRUCTURE
     1 MOL         1 TEMP              0 ****  ****    0 ROOT
