@<TRIPOS>MOLECULE
MOL
  189   185     1     0     0
SMALL
resp


@<TRIPOS>ATOM
      1 C1         -0.1730   -3.0030    6.2920 c3        1 MOL     -0.365462
      2 C2          0.5850   -2.7140    4.9920 c         1 MOL      0.726042
      3 O1          0.7370   -1.5540    4.6630 o         1 MOL     -0.587630
      4 H1         -1.1870   -3.3270    6.0560 hc        1 MOL      0.092047
      5 H2          0.3390   -3.7900    6.8450 hc        1 MOL      0.092047
      6 H3         -0.2130   -2.0990    6.8990 hc        1 MOL      0.092047
      7 N1          1.1500   -3.7430    4.3180 n         1 MOL     -0.585835
      8 C3          1.8580   -3.5720    2.9850 c3        1 MOL      0.321999
      9 C4          1.7750   -4.6990    1.9650 c         1 MOL      0.410191
     10 O2          1.9420   -5.8330    2.3420 o         1 MOL     -0.581670
     11 C5          3.3390   -3.3650    3.3030 c3        1 MOL     -0.657910
     12 C6          4.1900   -2.9390    2.1240 c         1 MOL      0.913974
     13 O3          5.4390   -2.9910    2.2440 o         1 MOL     -0.705565
     14 O4          3.7220   -2.4920    1.0010 o         1 MOL     -0.705565
     15 H4          0.9350   -4.6700    4.6660 hn        1 MOL      0.302363
     16 H5          1.4680   -2.7140    2.4480 h1        1 MOL      0.004778
     17 H6          3.6800   -4.3610    3.5860 hc        1 MOL      0.166402
     18 H7          3.3130   -2.7280    4.1920 hc        1 MOL      0.166402
     19 N2          1.5130   -4.4680    0.6430 n         1 MOL     -0.008735
     20 C7          1.3900   -5.4700   -0.4870 c3        1 MOL     -0.222334
     21 C8          2.4700   -5.2410   -1.6170 c         1 MOL      0.519381
     22 O5          2.6280   -6.1050   -2.4380 o         1 MOL     -0.582434
     23 C9          0.0350   -5.4500   -1.1910 c3        1 MOL      0.327258
     24 C10        -0.2950   -4.1110   -1.8630 c3        1 MOL     -0.019151
     25 C11        -0.9960   -6.0150   -0.2870 c3        1 MOL     -0.194966
     26 C12        -1.5970   -3.9600   -2.7130 c3        1 MOL     -0.180796
     27 H8          1.4740   -3.4750    0.4610 hn        1 MOL      0.075524
     28 H9          1.5010   -6.4980   -0.1190 h1        1 MOL      0.098363
     29 H10         0.1310   -6.1660   -2.0120 hc        1 MOL     -0.047815
     30 H11         0.5180   -3.7250   -2.4870 hc        1 MOL      0.029268
     31 H12        -0.3960   -3.3870   -1.0520 hc        1 MOL      0.029268
     32 H13        -0.6860   -7.0030    0.0570 hc        1 MOL      0.022067
     33 H14        -1.1080   -5.3380    0.5560 hc        1 MOL      0.022067
     34 H15        -1.9080   -6.2220   -0.8440 hc        1 MOL      0.022067
     35 H16        -2.4740   -3.7770   -2.0890 hc        1 MOL      0.041425
     36 H17        -1.5500   -3.0710   -3.3500 hc        1 MOL      0.041425
     37 H18        -1.7270   -4.8480   -3.3250 hc        1 MOL      0.041425
     38 N3          3.2430   -4.1580   -1.6330 n         1 MOL     -0.240118
     39 C13         4.1480   -3.7650   -2.7150 c3        1 MOL     -0.054547
     40 C14         5.5280   -3.1550   -2.3490 c         1 MOL      0.437937
     41 O6          6.3880   -2.9320   -3.2630 o         1 MOL     -0.554959
     42 C15         3.4420   -2.7350   -3.5960 c3        1 MOL     -0.136196
     43 C16         2.8040   -1.5840   -2.7800 c         1 MOL      0.723522
     44 O7          3.3090   -1.3120   -1.6470 o         1 MOL     -0.692381
     45 O8          1.9220   -0.8900   -3.2700 o         1 MOL     -0.692381
     46 H19         3.2140   -3.5330   -0.8450 hn        1 MOL      0.068606
     47 H20         4.4150   -4.6590   -3.2720 h1        1 MOL      0.106621
     48 H21         2.5970   -3.1520   -4.1420 hc        1 MOL      0.032306
     49 H22         4.1380   -2.3210   -4.3230 hc        1 MOL      0.032306
     50 N4          5.8050   -3.0100   -1.0580 n         1 MOL     -0.262960
     51 C17         7.1260   -2.4580   -0.6570 c3        1 MOL     -0.182830
     52 C18         7.4800   -1.0290   -1.1160 c         1 MOL      0.512261
     53 O9          8.6940   -0.7260   -1.0730 o         1 MOL     -0.609582
     54 H23         5.1390   -3.0750   -0.3010 hn        1 MOL      0.240892
     55 H24         7.9390   -3.1250   -0.9250 h1        1 MOL      0.104945
     56 H25         7.0060   -2.3170    0.4100 h1        1 MOL      0.104945
     57 N5          6.6120   -0.1980   -1.6700 n         1 MOL     -0.173860
     58 C19         6.9840    1.1630   -1.9880 c3        1 MOL     -0.118542
     59 C20         7.2240    2.2240   -0.8470 c         1 MOL      0.469359
     60 O10         7.8160    3.2970   -1.1520 o         1 MOL     -0.585847
     61 C21         5.8880    1.8660   -2.8150 c3        1 MOL     -0.224620
     62 C22         4.5090    1.7300   -2.1100 c         1 MOL      0.737514
     63 O11         4.3380    1.2860   -0.9450 o         1 MOL     -0.657080
     64 O12         3.5950    2.2490   -2.6940 o         1 MOL     -0.657080
     65 H26         5.6260   -0.3940   -1.7110 hn        1 MOL      0.232015
     66 H27         7.8850    1.2600   -2.6110 h1        1 MOL      0.117601
     67 H28         5.8420    1.4810   -3.8260 hc        1 MOL      0.073458
     68 H29         6.0260    2.9330   -2.9710 hc        1 MOL      0.073458
     69 N6          6.7810    1.9160    0.3530 n         1 MOL     -0.250012
     70 C23         6.9950    2.8360    1.5290 c3        1 MOL     -0.133575
     71 C24         5.8360    3.8350    1.6510 c         1 MOL      0.532601
     72 O13         6.0180    4.8530    2.2260 o         1 MOL     -0.588220
     73 H30         6.2460    1.0620    0.4690 hn        1 MOL      0.234710
     74 H31         7.9410    3.3740    1.4940 h1        1 MOL      0.090457
     75 H32         7.0380    2.2550    2.4530 h1        1 MOL      0.090457
     76 N7          4.7770    3.6330    0.9140 n         1 MOL     -0.297702
     77 C25         3.5670    4.3940    0.9150 c3        1 MOL     -0.005472
     78 C26         2.3690    3.5430    1.3350 c         1 MOL      0.569360
     79 O14         2.4800    2.3210    1.4980 o         1 MOL     -0.591192
     80 C27         3.4470    5.1720   -0.3790 c3        1 MOL      0.141487
     81 C28         4.7130    5.7590   -1.0680 c3        1 MOL     -0.332899
     82 C29         4.3540    6.4050   -2.3830 c         1 MOL      0.710835
     83 N8          5.1850    6.5720   -3.4040 n         1 MOL     -0.831822
     84 O15         3.2460    6.8520   -2.6220 o         1 MOL     -0.596478
     85 H33         4.8540    2.8430    0.2860 hn        1 MOL      0.145516
     86 H34         3.5970    5.2500    1.5940 h1        1 MOL      0.035309
     87 H35         2.6530    5.9010   -0.2240 hc        1 MOL     -0.005652
     88 H36         3.0780    4.4670   -1.1200 hc        1 MOL     -0.005652
     89 H37         5.3560    4.9130   -1.2900 hc        1 MOL      0.119855
     90 H38         5.1650    6.5320   -0.4450 hc        1 MOL      0.119855
     91 H39         6.1050    6.1550   -3.3150 hn        1 MOL      0.372913
     92 H40         4.6810    7.0140   -4.1540 hn        1 MOL      0.372913
     93 N9          1.1360    4.1000    1.3520 n         1 MOL     -0.546167
     94 C30        -0.1390    3.3590    1.6550 c3        1 MOL      0.222918
     95 C31        -1.0550    3.3040    0.4530 c         1 MOL      0.390165
     96 O16        -1.6710    4.3270    0.1380 o         1 MOL     -0.555435
     97 C32        -0.7430    4.0120    2.8920 c3        1 MOL      0.025970
     98 C33        -2.0880    3.4140    3.3450 c3        1 MOL     -0.190110
     99 C34         0.2300    4.0910    4.1090 c3        1 MOL     -0.190110
    100 H41         1.0350    5.0990    1.2450 hn        1 MOL      0.327398
    101 H42         0.1360    2.3350    1.9020 h1        1 MOL      0.041411
    102 H43        -0.9160    5.0360    2.5370 hc        1 MOL      0.004017
    103 H44        -2.0930    2.4130    3.7610 hc        1 MOL      0.046462
    104 H45        -2.3680    4.0750    4.1700 hc        1 MOL      0.046462
    105 H46        -2.7900    3.5130    2.5170 hc        1 MOL      0.046462
    106 H47         0.5450    3.1260    4.5120 hc        1 MOL      0.046462
    107 H48         1.1560    4.5770    3.8160 hc        1 MOL      0.046462
    108 H49        -0.1930    4.5610    4.9970 hc        1 MOL      0.046462
    109 N10        -1.2300    2.2140   -0.2810 n         1 MOL     -0.228773
    110 C35        -2.2580    1.9270   -1.2390 c3        1 MOL     -0.017249
    111 C36        -3.6650    1.9640   -0.5260 c         1 MOL      0.176433
    112 O17        -3.7470    1.7200    0.6280 o         1 MOL     -0.091647
    113 C37        -1.9540    0.5380   -1.7560 c3        1 MOL     -0.190864
    114 C38        -2.9630    0.1620   -2.8040 c         1 MOL      0.702304
    115 N11        -2.7490    0.8840   -3.8780 n         1 MOL     -0.761685
    116 O18        -3.9860   -0.4410   -2.5710 o         1 MOL     -0.546920
    117 H50        -0.7070    1.4130    0.0350 hn        1 MOL      0.225721
    118 H51        -2.3360    2.7000   -2.0040 h1        1 MOL      0.093043
    119 H52        -2.0050   -0.1790   -0.9440 hc        1 MOL      0.111187
    120 H53        -0.9170    0.4430   -2.0830 hc        1 MOL      0.111187
    121 H54        -1.9100    1.4210   -4.0360 hn        1 MOL      0.354037
    122 H55        -3.3620    0.7500   -4.6660 hn        1 MOL      0.354037
    123 N12        -4.7600    2.2120   -1.2620 n         1 MOL     -0.327829
    124 C39        -6.1000    2.1580   -0.7410 c3        1 MOL      0.144035
    125 C40        -6.4990    0.8400   -0.1020 c         1 MOL      0.587434
    126 O19        -7.2460    0.9350    0.8880 o         1 MOL     -0.567602
    127 C41        -7.0470    2.7410   -1.8360 c3        1 MOL     -0.158625
    128 C42        -8.4420    2.4910   -1.3970 ca        1 MOL      0.170130
    129 C43        -9.0120    3.3330   -0.3880 ca        1 MOL     -0.325113
    130 C44        -9.1650    1.6480   -2.1210 ca        1 MOL     -0.325113
    131 C45       -10.3710    3.1420   -0.0230 ca        1 MOL     -0.070255
    132 C46       -10.5680    1.5040   -1.7850 ca        1 MOL     -0.070255
    133 C47       -11.1520    2.2310   -0.7320 ca        1 MOL      0.151027
    134 O20       -12.5110    2.1050   -0.4290 oh        1 MOL     -0.486230
    135 H56        -4.6230    2.4360   -2.2280 hn        1 MOL      0.224662
    136 H57        -6.0890    2.8760    0.0730 h1        1 MOL      0.026785
    137 H58        -6.9660    2.3880   -2.8650 hc        1 MOL      0.062470
    138 H59        -6.8460    3.8010   -1.9250 hc        1 MOL      0.062470
    139 H60        -8.4480    4.1210    0.0870 ha        1 MOL      0.173294
    140 H61        -8.6890    1.0260   -2.8590 ha        1 MOL      0.173294
    141 H62       -10.8140    3.8970    0.6090 ha        1 MOL      0.099851
    142 H63       -11.2140    0.8450   -2.3280 ha        1 MOL      0.099851
    143 H64       -12.8500    1.4770   -1.0630 ho        1 MOL      0.350649
    144 N13        -6.0680   -0.3220   -0.5630 n         1 MOL     -0.137291
    145 C48        -6.4220   -1.5790    0.0020 c3        1 MOL     -0.096373
    146 C49        -5.5470   -1.9750    1.1870 c         1 MOL      0.355504
    147 O21        -5.9430   -2.8370    1.9460 o         1 MOL     -0.483777
    148 C50        -6.3590   -2.5570   -1.1310 c3        1 MOL      0.086015
    149 C51        -7.5770   -2.4460   -2.1060 c3        1 MOL     -0.209696
    150 C52        -7.2330   -3.1000   -3.4660 c         1 MOL      0.700178
    151 O22        -7.4130   -4.2920   -3.5460 o         1 MOL     -0.743695
    152 O23        -6.8210   -2.3930   -4.4530 o         1 MOL     -0.743695
    153 H65        -5.5240   -0.2980   -1.4210 hn        1 MOL      0.124323
    154 H66        -7.4660   -1.5730    0.3210 h1        1 MOL      0.079393
    155 H67        -6.4010   -3.5730   -0.7130 hc        1 MOL      0.039779
    156 H68        -5.3580   -2.5590   -1.5580 hc        1 MOL      0.039779
    157 H69        -7.8100   -1.3940   -2.2270 hc        1 MOL      0.009903
    158 H70        -8.4120   -2.9600   -1.6180 hc        1 MOL      0.009903
    159 N14        -4.3270   -1.3230    1.2420 n         1 MOL     -0.226718
    160 C53        -3.5860   -1.2660    2.5850 c3        1 MOL     -0.059781
    161 C54        -4.1610   -0.2530    3.6110 c         1 MOL      0.633084
    162 O24        -4.3370   -0.5900    4.7230 o         1 MOL     -0.599395
    163 C55        -2.1170   -0.8770    2.3180 c3        1 MOL      0.072181
    164 C56        -1.2820   -1.8140    1.4040 c3        1 MOL     -0.028384
    165 C57        -0.0010   -1.1240    0.8920 c         1 MOL      0.449287
    166 O25         0.8430   -1.8420    0.3130 o         1 MOL     -0.582176
    167 O26         0.3120    0.0800    1.0830 o         1 MOL     -0.582176
    168 H71        -4.1400   -0.6560    0.5110 hn        1 MOL      0.073847
    169 H72        -3.6990   -2.2260    3.0870 h1        1 MOL      0.072314
    170 H73        -1.6740   -0.7930    3.3100 hc        1 MOL     -0.012039
    171 H74        -2.1030    0.1280    1.8920 hc        1 MOL     -0.012039
    172 H75        -1.9630   -2.0970    0.6040 hc        1 MOL      0.001678
    173 H76        -0.9850   -2.7110    1.9380 hc        1 MOL      0.001678
    174 N15        -4.6680    0.9030    3.1750 n         1 MOL     -0.158478
    175 C58        -5.2720    1.8610    4.0840 c3        1 MOL     -0.141433
    176 H77        -5.9970    2.4670    3.5410 h1        1 MOL      0.061045
    177 H78        -5.7750    1.3290    4.8910 h1        1 MOL      0.061045
    178 H79        -4.4980    2.5060    4.4990 h1        1 MOL      0.061045
    179 H80        -4.3700    1.1930    2.2560 hn        1 MOL     -0.006826
    180 Ca1         2.7400   -0.1260    0.5670 Ca        1 MOL      1.774310
    181 O27         2.5310    0.0380    3.1640 oh        1 MOL     -0.927808
    182 H81         2.5930    0.9520    3.4380 ho        1 MOL      0.428703
    183 H82         2.0220   -0.3840    3.8590 ho        1 MOL      0.428703
    184 O28         1.4920    0.9950   -1.5130 oh        1 MOL     -0.927808
    185 H83         2.1580    1.5680   -1.9010 ho        1 MOL      0.428703
    186 H84         1.5580    0.1790   -2.0090 ho        1 MOL      0.428703
    187 O29         5.1380   -0.1660    1.7240 oh        1 MOL     -0.927808
    188 H85         5.2930    0.4280    2.4610 ho        1 MOL      0.428703
    189 H86         5.5850   -0.9770    1.9750 ho        1 MOL      0.428703
@<TRIPOS>BOND
     1    1    2 1   
     2    1    4 1   
     3    1    5 1   
     4    1    6 1   
     5    2    3 2   
     6    2    7 1   
     7    7    8 1   
     8    7   15 1   
     9    8    9 1   
    10    8   11 1   
    11    8   16 1   
    12    9   10 2   
    13    9   19 1   
    14   11   12 1   
    15   11   17 1   
    16   11   18 1   
    17   12   13 1   
    18   12   14 1   
    19   19   20 1   
    20   19   27 1   
    21   20   21 1   
    22   20   23 1   
    23   20   28 1   
    24   21   22 2   
    25   21   38 1   
    26   23   24 1   
    27   23   25 1   
    28   23   29 1   
    29   24   26 1   
    30   24   30 1   
    31   24   31 1   
    32   25   32 1   
    33   25   33 1   
    34   25   34 1   
    35   26   35 1   
    36   26   36 1   
    37   26   37 1   
    38   38   39 1   
    39   38   46 1   
    40   39   40 1   
    41   39   42 1   
    42   39   47 1   
    43   40   41 2   
    44   40   50 1   
    45   42   43 1   
    46   42   48 1   
    47   42   49 1   
    48   43   44 1   
    49   43   45 1   
    50   50   51 1   
    51   50   54 1   
    52   51   52 1   
    53   51   55 1   
    54   51   56 1   
    55   52   53 2   
    56   52   57 1   
    57   57   58 1   
    58   57   65 1   
    59   58   59 1   
    60   58   61 1   
    61   58   66 1   
    62   59   60 2   
    63   59   69 1   
    64   61   62 1   
    65   61   67 1   
    66   61   68 1   
    67   62   63 1   
    68   62   64 1   
    69   69   70 1   
    70   69   73 1   
    71   70   71 1   
    72   70   74 1   
    73   70   75 1   
    74   71   72 2   
    75   71   76 1   
    76   76   77 1   
    77   76   85 1   
    78   77   78 1   
    79   77   80 1   
    80   77   86 1   
    81   78   79 2   
    82   78   93 1   
    83   80   81 1   
    84   80   87 1   
    85   80   88 1   
    86   81   82 1   
    87   81   89 1   
    88   81   90 1   
    89   82   83 1   
    90   82   84 2   
    91   83   91 1   
    92   83   92 1   
    93   93   94 1   
    94   93  100 1   
    95   94   95 1   
    96   94   97 1   
    97   94  101 1   
    98   95   96 2   
    99   95  109 1   
   100   97   98 1   
   101   97   99 1   
   102   97  102 1   
   103   98  103 1   
   104   98  104 1   
   105   98  105 1   
   106   99  106 1   
   107   99  107 1   
   108   99  108 1   
   109  109  110 1   
   110  109  117 1   
   111  110  111 1   
   112  110  113 1   
   113  110  118 1   
   114  111  112 2   
   115  111  123 1   
   116  113  114 1   
   117  113  119 1   
   118  113  120 1   
   119  114  115 1   
   120  114  116 2   
   121  115  121 1   
   122  115  122 1   
   123  123  124 1   
   124  123  135 1   
   125  124  125 1   
   126  124  127 1   
   127  124  136 1   
   128  125  126 2   
   129  125  144 1   
   130  127  128 1   
   131  127  137 1   
   132  127  138 1   
   133  128  129 ar  
   134  128  130 ar  
   135  129  131 ar  
   136  129  139 1   
   137  130  132 ar  
   138  130  140 1   
   139  131  133 ar  
   140  131  141 1   
   141  132  133 ar  
   142  132  142 1   
   143  133  134 1   
   144  134  143 1   
   145  144  145 1   
   146  144  153 1   
   147  145  146 1   
   148  145  148 1   
   149  145  154 1   
   150  146  147 2   
   151  146  159 1   
   152  148  149 1   
   153  148  155 1   
   154  148  156 1   
   155  149  150 1   
   156  149  157 1   
   157  149  158 1   
   158  150  151 1   
   159  150  152 1   
   160  159  160 1   
   161  159  168 1   
   162  160  161 1   
   163  160  163 1   
   164  160  169 1   
   165  161  162 2   
   166  161  174 1   
   167  163  164 1   
   168  163  170 1   
   169  163  171 1   
   170  164  165 1   
   171  164  172 1   
   172  164  173 1   
   173  165  166 1   
   174  165  167 1   
   175  174  175 1   
   176  174  179 1   
   177  175  176 1   
   178  175  177 1   
   179  175  178 1   
   180  181  182 1   
   181  181  183 1   
   182  184  185 1   
   183  184  186 1   
   184  187  188 1   
   185  187  189 1   
@<TRIPOS>SUBSTRUCTURE
     1 MOL         1 TEMP              0 ****  ****    0 ROOT
