@<TRIPOS>MOLECULE
MOL
  175   173     1     0     0
SMALL
resp


@<TRIPOS>ATOM
      1 C1          1.0030    3.9910    5.4180 c3        1 MOL     -0.396958
      2 C2          0.3360    4.0600    4.0340 c         1 MOL      0.670312
      3 O1          1.1110    3.9930    3.0440 o         1 MOL     -0.560629
      4 H1          1.7830    4.7490    5.4830 hc        1 MOL      0.097983
      5 H2          0.2560    4.1710    6.1910 hc        1 MOL      0.097983
      6 H3          1.4430    3.0040    5.5610 hc        1 MOL      0.097983
      7 N1         -0.9670    4.0310    3.8990 n         1 MOL     -0.614169
      8 C3         -1.6640    3.7720    2.6210 c3        1 MOL      0.044592
      9 C4         -1.6440    4.9110    1.6410 c         1 MOL      0.773197
     10 O2         -1.5830    6.0380    2.1010 o         1 MOL     -0.604707
     11 C5         -3.1200    3.2140    2.9500 c3        1 MOL     -0.296435
     12 C6         -3.8730    2.7380    1.6620 c         1 MOL      0.711695
     13 O3         -3.2260    1.9840    0.8470 o         1 MOL     -0.626332
     14 O4         -5.0610    2.8880    1.5490 o         1 MOL     -0.626332
     15 H4         -1.5670    4.1950    4.7000 hn        1 MOL      0.332763
     16 H5         -1.1230    2.9360    2.1700 h1        1 MOL      0.168153
     17 H6         -3.7480    3.9800    3.4130 hc        1 MOL      0.054087
     18 H7         -3.0090    2.3190    3.5650 hc        1 MOL      0.054087
     19 N2         -1.7720    4.6240    0.3740 n         1 MOL     -0.702035
     20 C7         -2.3300    5.6470   -0.5350 c3        1 MOL      0.334787
     21 C8         -3.3500    5.2180   -1.6180 c         1 MOL      0.337880
     22 O5         -3.5020    5.8810   -2.6510 o         1 MOL     -0.507429
     23 C9         -1.1090    6.2980   -1.1900 c3        1 MOL     -0.382134
     24 H8         -1.7500    3.6790    0.0290 hn        1 MOL      0.469247
     25 H9         -2.7980    6.3790    0.1210 h1        1 MOL      0.001893
     26 H10        -0.5920    5.6240   -1.8660 hc        1 MOL      0.095422
     27 H11        -1.4460    7.1010   -1.8520 hc        1 MOL      0.095422
     28 H12        -0.3790    6.5570   -0.4220 hc        1 MOL      0.095422
     29 N3         -3.9650    4.0010   -1.4920 n         1 MOL     -0.177437
     30 C10        -4.8970    3.4960   -2.5340 c3        1 MOL      0.168559
     31 C11        -6.2010    2.8070   -2.1220 c         1 MOL      0.281993
     32 O6         -7.1610    2.8060   -2.9030 o         1 MOL     -0.537847
     33 C12        -4.2010    2.5680   -3.5860 c3        1 MOL     -0.205750
     34 C13        -3.4950    1.3870   -2.9990 c         1 MOL      0.834367
     35 O7         -3.9720    0.7480   -2.1030 o         1 MOL     -0.759746
     36 O8         -2.3130    1.1360   -3.3780 o         1 MOL     -0.759746
     37 H13        -3.7670    3.4090   -0.6930 hn        1 MOL      0.012174
     38 H14        -5.2190    4.4220   -3.0290 h1        1 MOL      0.040699
     39 H15        -3.4540    3.1860   -4.0870 hc        1 MOL      0.042179
     40 H16        -4.9060    2.2460   -4.3570 hc        1 MOL      0.042179
     41 N4         -6.2660    2.2430   -0.9130 n         1 MOL     -0.003288
     42 C14        -7.3360    1.4660   -0.3860 c3        1 MOL     -0.200733
     43 C15        -7.4110   -0.0190   -0.7920 c         1 MOL      0.457393
     44 O9         -8.5040   -0.5940   -0.6500 o         1 MOL     -0.617669
     45 H17        -5.4250    2.3720   -0.3630 hn        1 MOL      0.030480
     46 H18        -8.2530    1.9660   -0.7230 h1        1 MOL      0.101442
     47 H19        -7.3350    1.5870    0.6980 h1        1 MOL      0.101442
     48 N5         -6.3630   -0.5950   -1.3070 n         1 MOL     -0.044503
     49 C16        -6.3930   -2.0050   -1.7410 c3        1 MOL     -0.206892
     50 C17        -6.3720   -3.1930   -0.7900 c         1 MOL      0.431313
     51 O10        -6.2640   -4.3450   -1.2890 o         1 MOL     -0.514740
     52 C18        -5.3100   -2.1250   -2.8970 c3        1 MOL     -0.014867
     53 C19        -3.8730   -2.1950   -2.4770 c         1 MOL      0.432639
     54 N6         -2.9210   -2.2790   -3.3430 n         1 MOL     -0.505315
     55 O11        -3.5150   -2.1150   -1.3070 o         1 MOL     -0.452163
     56 H20        -5.4900   -0.0970   -1.2410 hn        1 MOL      0.135042
     57 H21        -7.3160   -2.1330   -2.2990 h1        1 MOL      0.146547
     58 H22        -5.3860   -1.2480   -3.5440 hc        1 MOL      0.032137
     59 H23        -5.6490   -2.9570   -3.5110 hc        1 MOL      0.032137
     60 H24        -3.1690   -2.5390   -4.2940 hn        1 MOL      0.284870
     61 H25        -1.9470   -2.2460   -3.0670 hn        1 MOL      0.284870
     62 N7         -6.4300   -2.9930    0.4740 n         1 MOL     -0.175990
     63 C20        -6.3820   -3.9750    1.5460 c3        1 MOL     -0.278655
     64 C21        -5.0240   -4.4840    1.9720 c         1 MOL      0.571138
     65 O12        -4.9080   -5.2670    2.9550 o         1 MOL     -0.602667
     66 H26        -6.5060   -2.0360    0.7970 hn        1 MOL      0.223142
     67 H27        -6.9700   -4.8440    1.2400 h1        1 MOL      0.128801
     68 H28        -6.8500   -3.4810    2.3920 h1        1 MOL      0.128801
     69 N8         -3.9270   -4.0150    1.3950 n         1 MOL     -0.304813
     70 C22        -2.6030   -4.5530    1.5250 c3        1 MOL     -0.110615
     71 C23        -1.5530   -3.4980    1.5000 c         1 MOL      0.606234
     72 O13        -1.6960   -2.4590    0.8740 o         1 MOL     -0.564452
     73 C24        -2.2830   -5.4920    0.3320 c3        1 MOL      0.461163
     74 C25        -2.7930   -6.9580    0.4000 c3        1 MOL     -0.451963
     75 O14        -2.7640   -4.9110   -0.9490 oh        1 MOL     -0.583261
     76 H29        -4.0830   -3.2910    0.7190 hn        1 MOL      0.237527
     77 H30        -2.6060   -5.0690    2.4900 h1        1 MOL      0.096465
     78 H31        -1.1990   -5.5340    0.2140 h1        1 MOL     -0.001143
     79 H32        -2.4240   -4.0270   -1.1110 ho        1 MOL      0.322216
     80 H33        -2.3860   -7.4270    1.2970 hc        1 MOL      0.114473
     81 H34        -3.8740   -7.0250    0.4990 hc        1 MOL      0.114473
     82 H35        -2.4270   -7.4530   -0.4990 hc        1 MOL      0.114473
     83 N9         -0.3980   -3.7830    2.0500 n         1 MOL     -0.582322
     84 C26         0.7300   -2.8970    1.8870 c3        1 MOL     -0.021811
     85 C27         1.4970   -3.1140    0.5680 c         1 MOL      0.624455
     86 O15         1.8320   -4.2750    0.3130 o         1 MOL     -0.606674
     87 C28         1.7500   -2.9910    3.0970 c3        1 MOL      0.293131
     88 C29         1.0790   -2.9350    4.4840 c3        1 MOL      0.049985
     89 C30         2.9180   -1.9590    3.0380 c3        1 MOL     -0.132048
     90 C31         2.1320   -3.0340    5.6660 c3        1 MOL     -0.220531
     91 H36        -0.2320   -4.6460    2.5360 hn        1 MOL      0.287356
     92 H37         0.3530   -1.8680    1.9430 h1        1 MOL      0.061674
     93 H38         2.3030   -3.9320    3.0750 hc        1 MOL     -0.074578
     94 H39         0.3290   -3.7220    4.5860 hc        1 MOL     -0.024588
     95 H40         0.5260   -1.9900    4.5370 hc        1 MOL     -0.024588
     96 H41         3.6560   -2.0670    3.8330 hc        1 MOL      0.000116
     97 H42         3.4940   -2.1050    2.1180 hc        1 MOL      0.000116
     98 H43         2.4760   -0.9630    3.0040 hc        1 MOL      0.000116
     99 H44         1.6390   -3.3690    6.5720 hc        1 MOL      0.053057
    100 H45         2.9040   -3.7570    5.4290 hc        1 MOL      0.053057
    101 H46         2.6180   -2.0750    5.8250 hc        1 MOL      0.053057
    102 N10         1.7340   -2.0280   -0.1390 n         1 MOL     -0.358423
    103 C32         2.5720   -2.0570   -1.3470 c3        1 MOL      0.157751
    104 C33         4.0050   -1.5420   -1.0920 c         1 MOL      0.396905
    105 O16         4.2110   -0.9510   -0.0800 o         1 MOL     -0.309635
    106 C34         1.8200   -1.3170   -2.4700 c3        1 MOL     -0.365187
    107 C35         0.3690   -1.7940   -2.6560 c         1 MOL      0.777026
    108 O17        -0.4950   -1.3150   -1.8750 o         1 MOL     -0.680690
    109 O18         0.1270   -2.6000   -3.5570 o         1 MOL     -0.680690
    110 H47         1.4970   -1.1330    0.2720 hn        1 MOL      0.253887
    111 H48         2.6250   -3.0970   -1.6700 h1        1 MOL      0.042241
    112 H49         2.4620   -1.5300   -3.3220 hc        1 MOL      0.088327
    113 H50         1.7910   -0.2450   -2.3340 hc        1 MOL      0.088327
    114 N11         4.9820   -1.8390   -1.8970 n         1 MOL     -0.621054
    115 C36         6.3470   -1.4860   -1.5460 c3        1 MOL      0.449383
    116 C37         6.6180   -0.0540   -1.1530 c         1 MOL      0.067637
    117 O19         7.1960    0.1950   -0.1120 o         1 MOL     -0.409936
    118 C38         7.3670   -1.9730   -2.5930 c3        1 MOL     -0.482763
    119 C39         8.7740   -1.8630   -2.1560 ca        1 MOL      0.428989
    120 C40         9.3140   -2.6170   -1.1120 ca        1 MOL     -0.363835
    121 C41         9.6410   -1.0850   -3.0300 ca        1 MOL     -0.363835
    122 C42        10.6620   -2.4620   -0.7970 ca        1 MOL      0.053116
    123 C43        10.9920   -0.9960   -2.6870 ca        1 MOL      0.053116
    124 C44        11.5150   -1.7190   -1.6150 ca        1 MOL     -0.290789
    125 H51         4.7980   -2.2520   -2.7970 hn        1 MOL      0.351716
    126 H52         6.5700   -2.0500   -0.6480 h1        1 MOL      0.048113
    127 H53         7.1080   -1.4790   -3.5310 hc        1 MOL      0.115200
    128 H54         7.1770   -3.0280   -2.7590 hc        1 MOL      0.115200
    129 H55         8.6990   -3.2750   -0.5160 ha        1 MOL      0.162449
    130 H56         9.1720   -0.4240   -3.7430 ha        1 MOL      0.162449
    131 H57        11.0630   -2.9540    0.0760 ha        1 MOL      0.080843
    132 H58        11.6050   -0.3730   -3.3340 ha        1 MOL      0.080843
    133 H59        12.5330   -1.6520   -1.2610 ha        1 MOL      0.137143
    134 N12         6.1680    0.9890   -1.8970 n         1 MOL     -0.002945
    135 C45         6.3030    2.3850   -1.4470 c3        1 MOL     -0.001496
    136 C46         5.6610    2.7790   -0.0930 c         1 MOL      0.221267
    137 O20         6.0660    3.7790    0.5650 o         1 MOL     -0.499856
    138 C47         5.7260    3.2180   -2.5940 c3        1 MOL     -0.059013
    139 C48         5.3470    2.3360   -3.7470 c3        1 MOL     -0.124234
    140 C49         5.4040    0.9400   -3.1520 c3        1 MOL      0.122306
    141 H60         7.3500    2.7010   -1.3730 h1        1 MOL      0.081462
    142 H61         4.7470    3.6200   -2.3250 hc        1 MOL      0.051256
    143 H62         6.4190    4.0310   -2.8110 hc        1 MOL      0.051256
    144 H63         4.3560    2.6180   -4.0850 hc        1 MOL      0.053818
    145 H64         6.0780    2.5160   -4.5410 hc        1 MOL      0.053818
    146 H65         4.4480    0.4400   -3.0830 h1        1 MOL     -0.012774
    147 H66         5.9280    0.2810   -3.8450 h1        1 MOL     -0.012774
    148 N13         4.7550    1.9520    0.4160 n         1 MOL      0.057869
    149 C50         4.0540    2.1480    1.7070 c3        1 MOL     -0.196312
    150 C51         4.8910    1.5800    2.8960 c         1 MOL      0.419154
    151 O21         4.9650    2.0260    4.0220 o         1 MOL     -0.540976
    152 C52         2.6050    1.5170    1.5990 c3        1 MOL     -0.044438
    153 C53         1.7220    2.2020    0.5410 c3        1 MOL     -0.208831
    154 C54         0.3300    1.5470    0.3280 c         1 MOL      0.690802
    155 O22        -0.5260    2.1030   -0.4090 o         1 MOL     -0.786204
    156 O23        -0.0610    0.6080    0.9130 o         1 MOL     -0.786204
    157 H67         4.4680    1.1150   -0.0600 hn        1 MOL      0.109410
    158 H68         3.8440    3.2030    1.8660 h1        1 MOL      0.152458
    159 H69         2.0930    1.4590    2.5580 hc        1 MOL      0.078792
    160 H70         2.7800    0.4840    1.2840 hc        1 MOL      0.078792
    161 H71         2.1740    2.0650   -0.4490 hc        1 MOL      0.082795
    162 H72         1.5040    3.2490    0.7360 hc        1 MOL      0.082795
    163 N14         5.7540    0.6250    2.5480 n         1 MOL      0.066955
    164 C55         6.6580   -0.0130    3.5000 c3        1 MOL     -0.283896
    165 H73         7.4240    0.7000    3.8070 h1        1 MOL      0.094053
    166 H74         6.0950   -0.3390    4.3750 h1        1 MOL      0.094053
    167 H75         7.1330   -0.8750    3.0310 h1        1 MOL      0.094053
    168 H76         5.8030    0.3670    1.5820 hn        1 MOL      0.005940
    169 Ca1        -2.1930   -0.0650   -0.3240 Ca        1 MOL      1.725565
    170 O24        -4.2660   -0.9080    1.3800 oh        1 MOL     -0.812298
    171 H77        -3.7770   -0.8140    2.1950 ho        1 MOL      0.397554
    172 H78        -5.1790   -0.8070    1.6200 ho        1 MOL      0.397554
    173 O25        -1.8100   -0.0750    2.7660 oh        1 MOL     -0.812298
    174 H79        -1.7940    0.3590    3.6190 ho        1 MOL      0.397554
    175 H80        -0.9310    0.0280    2.4240 ho        1 MOL      0.397554
@<TRIPOS>BOND
     1    1    2 1   
     2    1    4 1   
     3    1    5 1   
     4    1    6 1   
     5    2    3 2   
     6    2    7 1   
     7    7    8 1   
     8    7   15 1   
     9    8    9 1   
    10    8   11 1   
    11    8   16 1   
    12    9   10 2   
    13    9   19 1   
    14   11   12 1   
    15   11   17 1   
    16   11   18 1   
    17   12   13 1   
    18   12   14 1   
    19   19   20 1   
    20   19   24 1   
    21   20   21 1   
    22   20   23 1   
    23   20   25 1   
    24   21   22 2   
    25   21   29 1   
    26   23   26 1   
    27   23   27 1   
    28   23   28 1   
    29   29   30 1   
    30   29   37 1   
    31   30   31 1   
    32   30   33 1   
    33   30   38 1   
    34   31   32 2   
    35   31   41 1   
    36   33   34 1   
    37   33   39 1   
    38   33   40 1   
    39   34   35 1   
    40   34   36 1   
    41   41   42 1   
    42   41   45 1   
    43   42   43 1   
    44   42   46 1   
    45   42   47 1   
    46   43   44 2   
    47   43   48 1   
    48   48   49 1   
    49   48   56 1   
    50   49   50 1   
    51   49   52 1   
    52   49   57 1   
    53   50   51 2   
    54   50   62 1   
    55   52   53 1   
    56   52   58 1   
    57   52   59 1   
    58   53   54 1   
    59   53   55 2   
    60   54   60 1   
    61   54   61 1   
    62   62   63 1   
    63   62   66 1   
    64   63   64 1   
    65   63   67 1   
    66   63   68 1   
    67   64   65 2   
    68   64   69 1   
    69   69   70 1   
    70   69   76 1   
    71   70   71 1   
    72   70   73 1   
    73   70   77 1   
    74   71   72 2   
    75   71   83 1   
    76   73   74 1   
    77   73   75 1   
    78   73   78 1   
    79   74   80 1   
    80   74   81 1   
    81   74   82 1   
    82   75   79 1   
    83   83   84 1   
    84   83   91 1   
    85   84   85 1   
    86   84   87 1   
    87   84   92 1   
    88   85   86 2   
    89   85  102 1   
    90   87   88 1   
    91   87   89 1   
    92   87   93 1   
    93   88   90 1   
    94   88   94 1   
    95   88   95 1   
    96   89   96 1   
    97   89   97 1   
    98   89   98 1   
    99   90   99 1   
   100   90  100 1   
   101   90  101 1   
   102  102  103 1   
   103  102  110 1   
   104  103  104 1   
   105  103  106 1   
   106  103  111 1   
   107  104  105 2   
   108  104  114 1   
   109  106  107 1   
   110  106  112 1   
   111  106  113 1   
   112  107  108 1   
   113  107  109 1   
   114  114  115 1   
   115  114  125 1   
   116  115  116 1   
   117  115  118 1   
   118  115  126 1   
   119  116  117 2   
   120  116  134 1   
   121  118  119 1   
   122  118  127 1   
   123  118  128 1   
   124  119  120 ar  
   125  119  121 ar  
   126  120  122 ar  
   127  120  129 1   
   128  121  123 ar  
   129  121  130 1   
   130  122  124 ar  
   131  122  131 1   
   132  123  124 ar  
   133  123  132 1   
   134  124  133 1   
   135  134  135 1   
   136  134  140 1   
   137  135  136 1   
   138  135  138 1   
   139  135  141 1   
   140  136  137 2   
   141  136  148 1   
   142  138  139 1   
   143  138  142 1   
   144  138  143 1   
   145  139  140 1   
   146  139  144 1   
   147  139  145 1   
   148  140  146 1   
   149  140  147 1   
   150  148  149 1   
   151  148  157 1   
   152  149  150 1   
   153  149  152 1   
   154  149  158 1   
   155  150  151 2   
   156  150  163 1   
   157  152  153 1   
   158  152  159 1   
   159  152  160 1   
   160  153  154 1   
   161  153  161 1   
   162  153  162 1   
   163  154  155 1   
   164  154  156 1   
   165  163  164 1   
   166  163  168 1   
   167  164  165 1   
   168  164  166 1   
   169  164  167 1   
   170  170  171 1   
   171  170  172 1   
   172  173  174 1   
   173  173  175 1   
@<TRIPOS>SUBSTRUCTURE
     1 MOL         1 TEMP              0 ****  ****    0 ROOT
