@<TRIPOS>MOLECULE
MOL
  189   185     1     0     0
SMALL
resp


@<TRIPOS>ATOM
      1 C1          1.3020   -2.9180    6.2760 c3        1 MOL     -0.336672
      2 C2          1.3020   -2.7210    4.7680 c         1 MOL      0.744093
      3 O1          0.9620   -1.7160    4.2040 o         1 MOL     -0.588209
      4 H1          0.4420   -2.4070    6.7080 hc        1 MOL      0.082636
      5 H2          1.2440   -3.9820    6.5040 hc        1 MOL      0.082636
      6 H3          2.2190   -2.5050    6.6960 hc        1 MOL      0.082636
      7 N1          2.0030   -3.6150    4.0500 n         1 MOL     -0.627007
      8 C3          2.3390   -3.4940    2.6540 c3        1 MOL      0.103319
      9 C4          2.1010   -4.7720    1.8300 c         1 MOL      0.455030
     10 O2          2.3970   -5.8530    2.1890 o         1 MOL     -0.572992
     11 C5          3.8450   -3.2150    2.6030 c3        1 MOL     -0.085408
     12 C6          4.2880   -3.2090    1.1530 c         1 MOL      0.573922
     13 O3          3.7970   -2.3390    0.3770 o         1 MOL     -0.597890
     14 O4          5.0110   -4.1300    0.7340 o         1 MOL     -0.597890
     15 H4          2.3790   -4.4130    4.5530 hn        1 MOL      0.315293
     16 H5          1.8010   -2.6540    2.2080 h1        1 MOL      0.122689
     17 H6          4.4110   -4.0740    2.9910 hc        1 MOL     -0.001066
     18 H7          4.1990   -2.3450    3.1610 hc        1 MOL     -0.001066
     19 N2          1.5620   -4.6090    0.6350 n         1 MOL      0.123427
     20 C7          1.1570   -5.5780   -0.3200 c3        1 MOL     -0.018831
     21 C8          1.9880   -5.3710   -1.6160 c         1 MOL      0.460239
     22 O5          2.2120   -6.3880   -2.3090 o         1 MOL     -0.581302
     23 C9         -0.3450   -5.3410   -0.5780 c3        1 MOL      0.136951
     24 C10        -1.2850   -5.6760    0.6290 c3        1 MOL      0.024267
     25 C11        -0.7230   -6.2620   -1.7530 c3        1 MOL     -0.289140
     26 C12        -1.2310   -7.0470    1.2300 c3        1 MOL     -0.322662
     27 H8          1.3460   -3.6810    0.2770 hn        1 MOL     -0.189607
     28 H9          1.4540   -6.5730    0.0120 h1        1 MOL      0.064400
     29 H10        -0.5600   -4.3090   -0.8290 hc        1 MOL      0.030116
     30 H11        -2.2810   -5.4120    0.2630 hc        1 MOL      0.040849
     31 H12        -1.0410   -4.9850    1.4250 hc        1 MOL      0.040849
     32 H13        -0.4420   -5.8550   -2.7250 hc        1 MOL      0.066990
     33 H14        -0.2800   -7.2470   -1.6340 hc        1 MOL      0.066990
     34 H15        -1.8020   -6.4070   -1.6730 hc        1 MOL      0.066990
     35 H16        -0.1870   -7.2850    1.4710 hc        1 MOL      0.066698
     36 H17        -1.8500   -7.0880    2.1240 hc        1 MOL      0.066698
     37 H18        -1.6750   -7.7470    0.5260 hc        1 MOL      0.066698
     38 N3          2.3920   -4.1310   -2.0330 n         1 MOL     -0.181533
     39 C13         3.0550   -3.8740   -3.3290 c3        1 MOL      0.068993
     40 C14         4.5550   -3.4010   -3.1700 c         1 MOL      0.344375
     41 O6          5.2180   -3.2210   -4.1870 o         1 MOL     -0.571265
     42 C15         2.3020   -2.8410   -4.1460 c3        1 MOL     -0.301513
     43 C16         2.0960   -1.4840   -3.4620 c         1 MOL      0.784296
     44 O7          2.7330   -1.1440   -2.4510 o         1 MOL     -0.702509
     45 O8          1.3600   -0.6530   -4.0730 o         1 MOL     -0.702509
     46 H19         2.2760   -3.3850   -1.3690 hn        1 MOL      0.170582
     47 H20         3.0710   -4.8460   -3.8220 h1        1 MOL      0.082634
     48 H21         1.3130   -3.2240   -4.4010 hc        1 MOL      0.082338
     49 H22         2.8480   -2.5970   -5.0590 hc        1 MOL      0.082338
     50 N4          5.0290   -3.0000   -1.9850 n         1 MOL      0.046405
     51 C17         6.4820   -2.5010   -1.8000 c3        1 MOL     -0.320634
     52 C18         6.8060   -1.1220   -2.2190 c         1 MOL      0.614538
     53 O9          7.9940   -0.7640   -2.1440 o         1 MOL     -0.628850
     54 H23         4.4590   -2.9610   -1.1500 hn        1 MOL     -0.115358
     55 H24         7.1080   -3.1960   -2.3510 h1        1 MOL      0.125734
     56 H25         6.6930   -2.5670   -0.7360 h1        1 MOL      0.125734
     57 N5          5.7200   -0.3620   -2.4440 n         1 MOL     -0.322050
     58 C19         5.8230    1.0060   -3.0250 c3        1 MOL      0.003648
     59 C20         6.3870    2.0870   -2.0600 c         1 MOL      0.462888
     60 O10         6.6350    3.2240   -2.4930 o         1 MOL     -0.559912
     61 C21         4.5870    1.5650   -3.6680 c3        1 MOL     -0.116914
     62 C22         3.3830    1.8860   -2.7740 c         1 MOL      0.744700
     63 O11         3.4840    1.5590   -1.5840 o         1 MOL     -0.699326
     64 O12         2.3980    2.4860   -3.2710 o         1 MOL     -0.699326
     65 H26         4.8220   -0.8090   -2.4930 hn        1 MOL      0.301944
     66 H27         6.5960    0.9160   -3.7950 h1        1 MOL      0.067093
     67 H28         4.3700    0.7960   -4.3990 hc        1 MOL      0.033918
     68 H29         4.8940    2.4380   -4.2550 hc        1 MOL      0.033918
     69 N6          6.6490    1.7780   -0.7910 n         1 MOL     -0.331777
     70 C23         7.2150    2.6310    0.2280 c3        1 MOL      0.021626
     71 C24         6.1930    3.4480    1.0170 c         1 MOL      0.374418
     72 O13         6.6550    4.3030    1.8140 o         1 MOL     -0.592547
     73 H30         6.2450    0.9140   -0.4620 hn        1 MOL      0.246381
     74 H31         8.0590    3.2470   -0.0800 h1        1 MOL      0.061891
     75 H32         7.7370    2.0030    0.9500 h1        1 MOL      0.061891
     76 N7          4.8720    3.3300    0.7930 n         1 MOL     -0.097870
     77 C25         3.8500    4.0700    1.5400 c3        1 MOL     -0.032114
     78 C26         2.5890    3.1430    1.8080 c         1 MOL      0.645324
     79 O14         2.2830    2.3460    0.8920 o         1 MOL     -0.570779
     80 C27         3.4360    5.2920    0.6820 c3        1 MOL      0.050795
     81 C28         4.5610    6.3430    0.3690 c3        1 MOL     -0.234175
     82 C29         4.0260    7.5020   -0.3770 c         1 MOL      0.703874
     83 N8          4.5570    7.7870   -1.5390 n         1 MOL     -0.830495
     84 O15         3.1680    8.2210    0.0310 o         1 MOL     -0.602943
     85 H33         4.5740    2.5830    0.1810 hn        1 MOL      0.104996
     86 H34         4.2740    4.3250    2.5150 h1        1 MOL      0.036972
     87 H35         2.7200    5.8630    1.2860 hc        1 MOL      0.038208
     88 H36         3.0080    4.9730   -0.2590 hc        1 MOL      0.038208
     89 H37         5.3680    5.9240   -0.2250 hc        1 MOL      0.073638
     90 H38         4.8820    6.7650    1.3170 hc        1 MOL      0.073638
     91 H39         5.2320    7.1320   -1.8920 hn        1 MOL      0.372283
     92 H40         4.1730    8.5710   -2.0470 hn        1 MOL      0.372283
     93 N9          1.9360    3.2500    2.9740 n         1 MOL     -0.755306
     94 C30         0.5900    2.6840    3.0980 c3        1 MOL      0.296586
     95 C31        -0.4630    3.1090    2.1060 c         1 MOL      0.457716
     96 O16        -0.3240    4.2620    1.6910 o         1 MOL     -0.570719
     97 C32        -0.0050    2.8800    4.5070 c3        1 MOL      0.060422
     98 C33        -0.9370    1.7200    4.9090 c3        1 MOL     -0.183954
     99 C34         1.1250    2.8450    5.5750 c3        1 MOL     -0.183954
    100 H41         2.1970    4.0030    3.5920 hn        1 MOL      0.379348
    101 H42         0.7580    1.6170    2.9640 h1        1 MOL      0.067256
    102 H43        -0.5950    3.7850    4.5810 hc        1 MOL      0.006067
    103 H44        -0.3990    0.7880    4.7150 hc        1 MOL      0.038112
    104 H45        -1.4180    1.6960    5.8860 hc        1 MOL      0.038112
    105 H46        -1.7840    1.7770    4.2210 hc        1 MOL      0.038112
    106 H47         1.7800    1.9780    5.4800 hc        1 MOL      0.038112
    107 H48         1.7370    3.7390    5.5040 hc        1 MOL      0.038112
    108 H49         0.7160    2.8230    6.5870 hc        1 MOL      0.038112
    109 N10        -1.4200    2.2870    1.6210 n         1 MOL     -0.484065
    110 C35        -2.4250    2.7970    0.6860 c3        1 MOL      0.568673
    111 C36        -3.7780    2.3570    1.1650 c         1 MOL      0.054921
    112 O17        -3.8990    1.3390    1.8600 o         1 MOL     -0.273373
    113 C37        -2.1050    2.2740   -0.7820 c3        1 MOL     -0.545620
    114 C38        -3.1520    2.5300   -1.8250 c         1 MOL      0.746776
    115 N11        -3.4310    3.8160   -1.8380 n         1 MOL     -0.760895
    116 O18        -3.8530    1.7400   -2.3810 o         1 MOL     -0.524884
    117 H50        -1.2970    1.3030    1.8070 hn        1 MOL      0.312963
    118 H51        -2.4230    3.8800    0.6750 h1        1 MOL     -0.051610
    119 H52        -2.0290    1.1930   -0.7480 hc        1 MOL      0.176430
    120 H53        -1.1440    2.6620   -1.1130 hc        1 MOL      0.176430
    121 H54        -2.9500    4.4920   -1.2580 hn        1 MOL      0.326937
    122 H55        -3.9520    4.2190   -2.5990 hn        1 MOL      0.326937
    123 N12        -4.8880    3.0010    0.6960 n         1 MOL     -0.258646
    124 C39        -6.2820    2.6310    1.1880 c3        1 MOL      0.145367
    125 C40        -6.7050    1.1750    1.0540 c         1 MOL      0.322744
    126 O19        -7.4460    0.6710    1.8790 o         1 MOL     -0.547010
    127 C41        -7.3370    3.5420    0.5910 c3        1 MOL     -0.272809
    128 C42        -7.4650    3.4860   -0.9170 ca        1 MOL      0.182180
    129 C43        -8.3100    2.5150   -1.5110 ca        1 MOL     -0.341379
    130 C44        -6.6130    4.2010   -1.7990 ca        1 MOL     -0.341379
    131 C45        -8.4620    2.3630   -2.8700 ca        1 MOL     -0.115703
    132 C46        -6.7360    4.0080   -3.1920 ca        1 MOL     -0.115703
    133 C47        -7.7780    3.1990   -3.7330 ca        1 MOL      0.232249
    134 O20        -7.7580    3.0440   -5.0330 oh        1 MOL     -0.507843
    135 H56        -4.8320    3.7340   -0.0100 hn        1 MOL      0.179792
    136 H57        -6.2520    2.8840    2.2410 h1        1 MOL      0.059436
    137 H58        -7.1610    4.5590    0.9350 hc        1 MOL      0.090992
    138 H59        -8.3430    3.2940    0.9380 hc        1 MOL      0.090992
    139 H60        -8.7760    1.8390   -0.8110 ha        1 MOL      0.167325
    140 H61        -5.9320    4.9150   -1.3570 ha        1 MOL      0.167325
    141 H62        -9.0030    1.5330   -3.3190 ha        1 MOL      0.121987
    142 H63        -6.1500    4.6030   -3.8840 ha        1 MOL      0.121987
    143 H64        -8.2420    2.2700   -5.3270 ho        1 MOL      0.424392
    144 N13        -6.4460    0.5310   -0.1190 n         1 MOL     -0.006681
    145 C48        -6.7390   -0.9100   -0.3860 c3        1 MOL     -0.261578
    146 C49        -5.8100   -1.9020    0.4770 c         1 MOL      0.427056
    147 O21        -6.2010   -3.0390    0.7470 o         1 MOL     -0.515797
    148 C50        -6.5470   -1.1950   -1.8750 c3        1 MOL      0.030788
    149 C51        -7.0490   -2.6400   -2.3070 c3        1 MOL     -0.130512
    150 C52        -7.4480   -2.8060   -3.7290 c         1 MOL      0.676859
    151 O22        -8.6450   -3.1260   -3.9250 o         1 MOL     -0.748195
    152 O23        -6.6100   -2.6280   -4.6700 o         1 MOL     -0.748195
    153 H65        -6.0390    0.9810   -0.9180 hn        1 MOL      0.245771
    154 H66        -7.7570   -1.1230   -0.0360 h1        1 MOL      0.141582
    155 H67        -5.5000   -1.1310   -2.1620 hc        1 MOL      0.026214
    156 H68        -7.0640   -0.4150   -2.4310 hc        1 MOL      0.026214
    157 H69        -7.9530   -2.6490   -1.6970 hc        1 MOL      0.017713
    158 H70        -6.3510   -3.4420   -2.0340 hc        1 MOL      0.017713
    159 N14        -4.7260   -1.3450    1.0120 n         1 MOL     -0.084680
    160 C53        -3.8570   -2.1080    1.9420 c3        1 MOL     -0.078782
    161 C54        -4.4820   -2.0060    3.3730 c         1 MOL      0.460858
    162 O24        -4.4110   -3.0170    4.0820 o         1 MOL     -0.557133
    163 C55        -2.4150   -1.6390    1.8760 c3        1 MOL      0.130413
    164 C56        -1.7470   -1.6970    0.4680 c3        1 MOL     -0.013417
    165 C57        -0.2850   -1.2460    0.5690 c         1 MOL      0.623069
    166 O25        -0.0470   -0.1010    1.0100 o         1 MOL     -0.663743
    167 O26         0.6780   -1.9160    0.0560 o         1 MOL     -0.663743
    168 H71        -4.4520   -0.3970    0.7880 hn        1 MOL      0.048826
    169 H72        -3.8550   -3.1630    1.6670 h1        1 MOL      0.068482
    170 H73        -1.7700   -2.2250    2.5250 hc        1 MOL     -0.063014
    171 H74        -2.2930   -0.6390    2.2880 hc        1 MOL     -0.063014
    172 H75        -2.3550   -1.1290   -0.2340 hc        1 MOL      0.002506
    173 H76        -1.7930   -2.7160    0.0850 hc        1 MOL      0.002506
    174 N15        -4.9450   -0.8500    3.8150 n         1 MOL     -0.143033
    175 C58        -5.5860   -0.6330    5.1800 c3        1 MOL     -0.279131
    176 H77        -6.1840    0.2780    5.1600 h1        1 MOL      0.108183
    177 H78        -6.2260   -1.4820    5.4200 h1        1 MOL      0.108183
    178 H79        -4.8070   -0.5400    5.9370 h1        1 MOL      0.108183
    179 H80        -4.7490   -0.0100    3.2980 hn        1 MOL      0.153050
    180 Ca1         2.4470   -0.0690   -0.0420 Ca        1 MOL      1.719401
    181 O27         2.8730   -0.2260    2.5590 oh        1 MOL     -0.863726
    182 H81         3.5400    0.0670    3.1890 ho        1 MOL      0.416238
    183 H82         2.1780   -0.5940    3.0980 ho        1 MOL      0.416238
    184 O28         5.1890    0.2690    1.1170 oh        1 MOL     -0.863726
    185 H83         5.2850    0.3930    2.0630 ho        1 MOL      0.416238
    186 H84         5.9310   -0.2800    0.8710 ho        1 MOL      0.416238
    187 O29         0.5530    0.9070   -1.9910 oh        1 MOL     -0.863726
    188 H85         0.6660    0.3410   -2.7510 ho        1 MOL      0.416238
    189 H86         1.0160    1.7140   -2.2310 ho        1 MOL      0.416238
@<TRIPOS>BOND
     1    1    2 1   
     2    1    4 1   
     3    1    5 1   
     4    1    6 1   
     5    2    3 2   
     6    2    7 1   
     7    7    8 1   
     8    7   15 1   
     9    8    9 1   
    10    8   11 1   
    11    8   16 1   
    12    9   10 2   
    13    9   19 1   
    14   11   12 1   
    15   11   17 1   
    16   11   18 1   
    17   12   13 1   
    18   12   14 1   
    19   19   20 1   
    20   19   27 1   
    21   20   21 1   
    22   20   23 1   
    23   20   28 1   
    24   21   22 2   
    25   21   38 1   
    26   23   24 1   
    27   23   25 1   
    28   23   29 1   
    29   24   26 1   
    30   24   30 1   
    31   24   31 1   
    32   25   32 1   
    33   25   33 1   
    34   25   34 1   
    35   26   35 1   
    36   26   36 1   
    37   26   37 1   
    38   38   39 1   
    39   38   46 1   
    40   39   40 1   
    41   39   42 1   
    42   39   47 1   
    43   40   41 2   
    44   40   50 1   
    45   42   43 1   
    46   42   48 1   
    47   42   49 1   
    48   43   44 1   
    49   43   45 1   
    50   50   51 1   
    51   50   54 1   
    52   51   52 1   
    53   51   55 1   
    54   51   56 1   
    55   52   53 2   
    56   52   57 1   
    57   57   58 1   
    58   57   65 1   
    59   58   59 1   
    60   58   61 1   
    61   58   66 1   
    62   59   60 2   
    63   59   69 1   
    64   61   62 1   
    65   61   67 1   
    66   61   68 1   
    67   62   63 1   
    68   62   64 1   
    69   69   70 1   
    70   69   73 1   
    71   70   71 1   
    72   70   74 1   
    73   70   75 1   
    74   71   72 2   
    75   71   76 1   
    76   76   77 1   
    77   76   85 1   
    78   77   78 1   
    79   77   80 1   
    80   77   86 1   
    81   78   79 2   
    82   78   93 1   
    83   80   81 1   
    84   80   87 1   
    85   80   88 1   
    86   81   82 1   
    87   81   89 1   
    88   81   90 1   
    89   82   83 1   
    90   82   84 2   
    91   83   91 1   
    92   83   92 1   
    93   93   94 1   
    94   93  100 1   
    95   94   95 1   
    96   94   97 1   
    97   94  101 1   
    98   95   96 2   
    99   95  109 1   
   100   97   98 1   
   101   97   99 1   
   102   97  102 1   
   103   98  103 1   
   104   98  104 1   
   105   98  105 1   
   106   99  106 1   
   107   99  107 1   
   108   99  108 1   
   109  109  110 1   
   110  109  117 1   
   111  110  111 1   
   112  110  113 1   
   113  110  118 1   
   114  111  112 2   
   115  111  123 1   
   116  113  114 1   
   117  113  119 1   
   118  113  120 1   
   119  114  115 1   
   120  114  116 2   
   121  115  121 1   
   122  115  122 1   
   123  123  124 1   
   124  123  135 1   
   125  124  125 1   
   126  124  127 1   
   127  124  136 1   
   128  125  126 2   
   129  125  144 1   
   130  127  128 1   
   131  127  137 1   
   132  127  138 1   
   133  128  129 ar  
   134  128  130 ar  
   135  129  131 ar  
   136  129  139 1   
   137  130  132 ar  
   138  130  140 1   
   139  131  133 ar  
   140  131  141 1   
   141  132  133 ar  
   142  132  142 1   
   143  133  134 1   
   144  134  143 1   
   145  144  145 1   
   146  144  153 1   
   147  145  146 1   
   148  145  148 1   
   149  145  154 1   
   150  146  147 2   
   151  146  159 1   
   152  148  149 1   
   153  148  155 1   
   154  148  156 1   
   155  149  150 1   
   156  149  157 1   
   157  149  158 1   
   158  150  151 1   
   159  150  152 1   
   160  159  160 1   
   161  159  168 1   
   162  160  161 1   
   163  160  163 1   
   164  160  169 1   
   165  161  162 2   
   166  161  174 1   
   167  163  164 1   
   168  163  170 1   
   169  163  171 1   
   170  164  165 1   
   171  164  172 1   
   172  164  173 1   
   173  165  166 1   
   174  165  167 1   
   175  174  175 1   
   176  174  179 1   
   177  175  176 1   
   178  175  177 1   
   179  175  178 1   
   180  181  182 1   
   181  181  183 1   
   182  184  185 1   
   183  184  186 1   
   184  187  188 1   
   185  187  189 1   
@<TRIPOS>SUBSTRUCTURE
     1 MOL         1 TEMP              0 ****  ****    0 ROOT
