@<TRIPOS>MOLECULE
MOL
  179   176     1     0     0
SMALL
resp


@<TRIPOS>ATOM
      1 C1          1.9990    3.7690    4.1160 c3        1 MOL     -0.456608
      2 C2          1.1750    3.4570    2.8920 c         1 MOL      0.665132
      3 O1          1.5370    3.7100    1.7780 o         1 MOL     -0.602206
      4 H1          1.3390    4.0590    4.9340 hc        1 MOL      0.119950
      5 H2          2.5690    2.8870    4.4050 hc        1 MOL      0.119950
      6 H3          2.6830    4.5880    3.8950 hc        1 MOL      0.119950
      7 N1         -0.0120    2.9710    3.0340 n         1 MOL     -0.531511
      8 C3         -1.0330    2.6770    1.9990 c3        1 MOL      0.190308
      9 C4         -1.9250    3.8680    1.4990 c         1 MOL      0.583495
     10 O2         -3.0410    4.0710    1.9470 o         1 MOL     -0.442939
     11 C5         -1.9580    1.5300    2.4860 c3        1 MOL     -0.496336
     12 C6         -3.0040    1.0060    1.4520 c         1 MOL      0.567646
     13 O3         -3.9840    0.3830    1.8830 o         1 MOL     -0.566837
     14 O4         -2.8940    1.3370    0.2080 o         1 MOL     -0.566837
     15 H4         -0.3700    2.8210    3.9650 hn        1 MOL      0.305493
     16 H5         -0.5880    2.2110    1.1190 h1        1 MOL     -0.019202
     17 H6         -2.5200    1.8940    3.3530 hc        1 MOL      0.146552
     18 H7         -1.4170    0.6060    2.7010 hc        1 MOL      0.146552
     19 N2         -1.2950    4.8760    0.8480 n         1 MOL     -0.488116
     20 C7         -1.9560    6.1060    0.4530 c3        1 MOL     -0.135102
     21 C8         -3.1020    5.8210   -0.5260 c         1 MOL      0.573330
     22 O5         -4.0910    6.4780   -0.3630 o         1 MOL     -0.555078
     23 C9         -0.9330    7.1480   -0.1100 c3        1 MOL      0.030103
     24 C10         0.3290    7.3890    0.6910 c3        1 MOL     -0.025210
     25 C11         1.4320    8.1380   -0.0380 c3        1 MOL     -0.033471
     26 C12         2.6800    8.4580    0.8040 c3        1 MOL     -0.104688
     27 N3          3.1520    7.2580    1.4050 n4        1 MOL     -0.170681
     28 H8         -0.3930    4.7340    0.4220 hn        1 MOL      0.354826
     29 H9         -2.4310    6.5200    1.3430 h1        1 MOL      0.120232
     30 H10        -1.3910    8.1080   -0.3550 hc        1 MOL      0.032003
     31 H11        -0.6710    6.8190   -1.1170 hc        1 MOL      0.032003
     32 H12         0.7900    6.4580    1.0140 hc        1 MOL      0.013820
     33 H13         0.0750    8.0240    1.5440 hc        1 MOL      0.013820
     34 H14         0.9440    9.0420   -0.3820 hc        1 MOL      0.049311
     35 H15         1.7490    7.6140   -0.9390 hc        1 MOL      0.049311
     36 H16         2.4130    9.2140    1.5330 hx        1 MOL      0.114226
     37 H17         3.4770    8.8890    0.1960 hx        1 MOL      0.114226
     38 H18         3.9410    7.4990    1.9870 hn        1 MOL      0.288031
     39 H19         2.4810    6.8870    2.0550 hn        1 MOL      0.288031
     40 H20         3.4000    6.5140    0.7630 hn        1 MOL      0.288031
     41 N4         -2.9790    4.8800   -1.4210 n         1 MOL     -0.342502
     42 C13        -4.1090    4.4610   -2.3290 c3        1 MOL      0.033876
     43 C14        -5.2570    3.8080   -1.6730 c         1 MOL      0.415179
     44 O6         -6.3340    3.8480   -2.2370 o         1 MOL     -0.520843
     45 C15        -3.5540    3.5450   -3.4580 c3        1 MOL     -0.439348
     46 C16        -2.8060    2.4030   -2.8110 c         1 MOL      0.838051
     47 O7         -1.6530    2.4750   -2.3430 o         1 MOL     -0.755517
     48 O8         -3.3830    1.3130   -2.7600 o         1 MOL     -0.755517
     49 H21        -2.2460    4.2040   -1.2770 hn        1 MOL      0.190134
     50 H22        -4.5190    5.3690   -2.7660 h1        1 MOL      0.102187
     51 H23        -2.8570    4.0860   -4.0920 hc        1 MOL      0.135320
     52 H24        -4.3800    3.1390   -4.0500 hc        1 MOL      0.135320
     53 N5         -4.9830    3.3330   -0.4370 n         1 MOL      0.137235
     54 C17        -5.9930    2.7940    0.4590 c3        1 MOL     -0.272547
     55 C18        -6.6020    1.5370   -0.0260 c         1 MOL      0.539539
     56 O9         -7.8010    1.3380    0.1940 o         1 MOL     -0.564382
     57 H25        -4.0390    3.3840   -0.0980 hn        1 MOL     -0.047949
     58 H26        -6.7540    3.5590    0.6310 h1        1 MOL      0.124208
     59 H27        -5.4390    2.4550    1.3310 h1        1 MOL      0.124208
     60 N6         -5.8740    0.6770   -0.7350 n         1 MOL      0.004579
     61 C19        -6.3660   -0.6150   -1.1590 c3        1 MOL     -0.243357
     62 C20        -6.5280   -1.7380   -0.0860 c         1 MOL      0.377164
     63 O10        -7.2360   -2.7170   -0.2860 o         1 MOL     -0.527059
     64 C21        -5.6340   -1.1300   -2.4560 c3        1 MOL     -0.191033
     65 C22        -4.2000   -1.6260   -2.2220 c         1 MOL      0.372388
     66 N7         -3.5760   -2.0710   -3.3210 n         1 MOL     -0.708783
     67 O11        -3.7150   -1.6490   -1.0770 o         1 MOL     -0.071088
     68 H28        -4.8880    0.9160   -0.8070 hn        1 MOL     -0.114547
     69 H29        -7.3420   -0.4710   -1.6390 h1        1 MOL      0.149890
     70 H30        -5.7630   -0.3700   -3.2270 hc        1 MOL      0.119230
     71 H31        -6.0560   -2.0600   -2.8470 hc        1 MOL      0.119230
     72 H32        -4.0030   -1.9350   -4.2330 hn        1 MOL      0.339345
     73 H33        -2.6780   -2.5360   -3.2850 hn        1 MOL      0.339345
     74 N8         -5.8420   -1.6550    1.0290 n         1 MOL     -0.017529
     75 C23        -5.7530   -2.5530    2.1760 c3        1 MOL     -0.273450
     76 C24        -4.3980   -3.3180    2.3350 c         1 MOL      0.661640
     77 O12        -4.2950   -4.2250    3.2080 o         1 MOL     -0.591908
     78 H34        -5.2280   -0.8620    1.0810 hn        1 MOL      0.086757
     79 H35        -6.5970   -3.2470    2.2170 h1        1 MOL      0.127136
     80 H36        -5.8930   -2.0300    3.1200 h1        1 MOL      0.127136
     81 N9         -3.3650   -3.0030    1.5740 n         1 MOL     -0.793830
     82 C25        -2.0680   -3.7190    1.4700 c3        1 MOL      0.614074
     83 C26        -0.9260   -2.6710    1.2710 c         1 MOL      0.151311
     84 O13        -1.2600   -1.5760    0.7210 o         1 MOL     -0.566425
     85 C27        -2.0880   -4.6430    0.2420 c3        1 MOL      0.167225
     86 C28        -3.2620   -5.6470    0.1000 ca        1 MOL     -0.110900
     87 C29        -4.5110   -5.1370   -0.3100 ca        1 MOL     -0.117658
     88 C30        -3.2400   -6.9490    0.5810 ca        1 MOL     -0.117658
     89 C31        -5.6620   -5.9900   -0.4090 ca        1 MOL     -0.238019
     90 C32        -4.3760   -7.8060    0.5470 ca        1 MOL     -0.238019
     91 C33        -5.5580   -7.3770   -0.0440 ca        1 MOL      0.289505
     92 O14        -6.5760   -8.2470    0.0660 oh        1 MOL     -0.436811
     93 H37        -3.5530   -2.2580    0.9180 hn        1 MOL      0.504896
     94 H38        -1.8920   -4.3390    2.3560 h1        1 MOL     -0.053058
     95 H39        -1.1570   -5.2160    0.2830 hc        1 MOL     -0.078473
     96 H40        -2.1570   -3.9730   -0.6200 hc        1 MOL     -0.078473
     97 H41        -4.4550   -4.1340   -0.7070 ha        1 MOL      0.087079
     98 H42        -2.3240   -7.3480    0.9900 ha        1 MOL      0.087079
     99 H43        -6.6690   -5.6290   -0.5660 ha        1 MOL      0.149350
    100 H44        -4.2790   -8.7680    1.0280 ha        1 MOL      0.149350
    101 H45        -6.2240   -9.1270    0.2440 ho        1 MOL      0.329441
    102 N10         0.2940   -3.1220    1.6600 n         1 MOL     -0.283539
    103 C34         1.5700   -2.4520    1.3850 c3        1 MOL     -0.062651
    104 C35         2.6450   -3.4720    0.8850 c         1 MOL      0.316613
    105 O15         2.7590   -4.6490    1.4450 o         1 MOL     -0.548384
    106 C36         2.1310   -1.6070    2.6360 c3        1 MOL     -0.002553
    107 C37         2.4830   -2.4370    3.8600 c3        1 MOL     -0.094451
    108 C38         1.1550   -0.4830    3.0110 c3        1 MOL     -0.220932
    109 C39         2.8800   -1.6640    5.1580 c3        1 MOL     -0.232367
    110 H46         0.3130   -3.9670    2.1980 hn        1 MOL      0.258160
    111 H47         1.3310   -1.7100    0.6150 h1        1 MOL      0.192666
    112 H48         3.0150   -1.0730    2.2830 hc        1 MOL      0.020318
    113 H49         3.3270   -3.0880    3.6290 hc        1 MOL      0.082786
    114 H50         1.6450   -3.0550    4.1660 hc        1 MOL      0.082786
    115 H51         0.6070   -0.0560    2.1760 hc        1 MOL      0.095195
    116 H52         0.4630   -0.8170    3.7820 hc        1 MOL      0.095195
    117 H53         1.6650    0.3770    3.4470 hc        1 MOL      0.095195
    118 H54         2.0160   -1.1230    5.5270 hc        1 MOL      0.063221
    119 H55         3.2490   -2.3500    5.9260 hc        1 MOL      0.063221
    120 H56         3.7540   -1.0550    4.9110 hc        1 MOL      0.063221
    121 N11         3.5210   -3.0290    0.0550 n         1 MOL      0.080235
    122 C40         4.6010   -3.7180   -0.5810 c3        1 MOL      0.025475
    123 C41         6.0010   -3.2150   -0.1480 c         1 MOL      0.356818
    124 O16         6.0300   -2.1990    0.5850 o         1 MOL     -0.371192
    125 C42         4.4580   -3.5230   -2.1220 c3        1 MOL     -0.171799
    126 O17         4.7900   -2.2460   -2.5130 oh        1 MOL     -0.500064
    127 H57         3.3330   -2.1010   -0.2890 hn        1 MOL     -0.083360
    128 H58         4.4760   -4.7890   -0.4250 h1        1 MOL      0.067191
    129 H59         3.4240   -3.7110   -2.4340 h1        1 MOL      0.108973
    130 H60         5.0790   -4.3150   -2.5330 h1        1 MOL      0.108973
    131 H61         4.2020   -1.9440   -3.2150 ho        1 MOL      0.414484
    132 N12         7.0840   -3.8130   -0.7250 n         1 MOL     -0.348341
    133 C43         8.4380   -3.3050   -0.4610 c3        1 MOL      0.022413
    134 C44         8.6020   -1.8420   -0.9270 c         1 MOL      0.540730
    135 O18         9.1100   -1.1010   -0.0860 o         1 MOL     -0.537441
    136 C45         9.4410   -4.2800   -1.0740 c3        1 MOL     -0.227457
    137 H62         6.9080   -4.7020   -1.1820 hn        1 MOL      0.290155
    138 H63         8.5790   -3.3770    0.6110 h1        1 MOL      0.119906
    139 H64         9.2940   -4.4390   -2.1430 hc        1 MOL      0.074308
    140 H65        10.4920   -4.0110   -0.9760 hc        1 MOL      0.074308
    141 H66         9.3090   -5.3070   -0.7160 hc        1 MOL      0.074308
    142 N13         8.1300   -1.3940   -2.0760 n         1 MOL     -0.428962
    143 C46         8.2770    0.0600   -2.5740 c3        1 MOL      0.150016
    144 C47         7.3960    1.0750   -1.7570 c         1 MOL      0.297106
    145 O19         7.8440    2.1970   -1.4740 o         1 MOL     -0.472468
    146 C48         7.8070    0.0530   -4.0040 c3        1 MOL     -0.269547
    147 H67         7.6480   -2.0750   -2.6370 hn        1 MOL      0.255506
    148 H68         9.3310    0.3110   -2.5010 h1        1 MOL      0.103874
    149 H69         7.6310    1.0610   -4.3900 hc        1 MOL      0.079463
    150 H70         8.5520   -0.4330   -4.6320 hc        1 MOL      0.079463
    151 H71         6.8530   -0.4600   -4.1280 hc        1 MOL      0.079463
    152 N14         6.1940    0.6190   -1.3300 n         1 MOL     -0.070828
    153 C49         5.3370    1.3470   -0.3810 c3        1 MOL     -0.099188
    154 C50         5.9570    1.5880    1.0080 c         1 MOL      0.389820
    155 O20         5.7100    2.6490    1.6840 o         1 MOL     -0.561525
    156 C51         3.9770    0.6810   -0.1910 c3        1 MOL     -0.117683
    157 C52         3.0530    0.8290   -1.3930 c3        1 MOL     -0.083366
    158 C53         1.6720    0.0970   -1.2810 c         1 MOL      0.897778
    159 O21         1.5590   -1.1250   -1.5830 o         1 MOL     -0.741012
    160 O22         0.7200    0.7740   -0.9680 o         1 MOL     -0.741012
    161 H72         5.7990   -0.2980   -1.4570 hn        1 MOL      0.137069
    162 H73         5.2150    2.3800   -0.6940 h1        1 MOL      0.112637
    163 H74         3.4170    1.1170    0.6380 hc        1 MOL      0.097913
    164 H75         4.1500   -0.3810    0.0130 hc        1 MOL      0.097913
    165 H76         3.5870    0.5190   -2.2890 hc        1 MOL     -0.008125
    166 H77         2.8100    1.8490   -1.6960 hc        1 MOL     -0.008125
    167 N15         6.6920    0.5570    1.5520 n         1 MOL      0.032657
    168 C54         7.3770    0.5710    2.8130 c3        1 MOL     -0.390024
    169 H78         6.7300    1.0110    3.5720 h1        1 MOL      0.136892
    170 H79         7.6310   -0.4500    3.1000 h1        1 MOL      0.136892
    171 H80         8.2880    1.1620    2.7250 h1        1 MOL      0.136892
    172 H81         6.6850   -0.2800    0.9880 hn        1 MOL      0.071416
    173 Ca1        -1.5960   -0.0640   -1.4220 Ca        1 MOL      1.690791
    174 O23        -0.6430   -0.0880   -4.1130 oh        1 MOL     -0.895043
    175 H82        -1.2090   -0.3330   -4.8440 ho        1 MOL      0.425708
    176 H83         0.2230    0.0090   -4.5150 ho        1 MOL      0.425708
    177 O24        -0.5220   -2.7820   -2.0230 oh        1 MOL     -0.895043
    178 H84        -0.4340   -3.7250   -2.1590 ho        1 MOL      0.425708
    179 H85         0.3840   -2.4540   -2.0070 ho        1 MOL      0.425708
@<TRIPOS>BOND
     1    1    2 1   
     2    1    4 1   
     3    1    5 1   
     4    1    6 1   
     5    2    3 2   
     6    2    7 1   
     7    7    8 1   
     8    7   15 1   
     9    8    9 1   
    10    8   11 1   
    11    8   16 1   
    12    9   10 2   
    13    9   19 1   
    14   11   12 1   
    15   11   17 1   
    16   11   18 1   
    17   12   13 1   
    18   12   14 1   
    19   19   20 1   
    20   19   28 1   
    21   20   21 1   
    22   20   23 1   
    23   20   29 1   
    24   21   22 2   
    25   21   41 1   
    26   23   24 1   
    27   23   30 1   
    28   23   31 1   
    29   24   25 1   
    30   24   32 1   
    31   24   33 1   
    32   25   26 1   
    33   25   34 1   
    34   25   35 1   
    35   26   27 1   
    36   26   36 1   
    37   26   37 1   
    38   27   38 1   
    39   27   39 1   
    40   27   40 1   
    41   41   42 1   
    42   41   49 1   
    43   42   43 1   
    44   42   45 1   
    45   42   50 1   
    46   43   44 2   
    47   43   53 1   
    48   45   46 1   
    49   45   51 1   
    50   45   52 1   
    51   46   47 1   
    52   46   48 1   
    53   53   54 1   
    54   53   57 1   
    55   54   55 1   
    56   54   58 1   
    57   54   59 1   
    58   55   56 2   
    59   55   60 1   
    60   60   61 1   
    61   60   68 1   
    62   61   62 1   
    63   61   64 1   
    64   61   69 1   
    65   62   63 2   
    66   62   74 1   
    67   64   65 1   
    68   64   70 1   
    69   64   71 1   
    70   65   66 1   
    71   65   67 2   
    72   66   72 1   
    73   66   73 1   
    74   74   75 1   
    75   74   78 1   
    76   75   76 1   
    77   75   79 1   
    78   75   80 1   
    79   76   77 2   
    80   76   81 1   
    81   81   82 1   
    82   81   93 1   
    83   82   83 1   
    84   82   85 1   
    85   82   94 1   
    86   83   84 2   
    87   83  102 1   
    88   85   86 1   
    89   85   95 1   
    90   85   96 1   
    91   86   87 ar  
    92   86   88 ar  
    93   87   89 ar  
    94   87   97 1   
    95   88   90 ar  
    96   88   98 1   
    97   89   91 ar  
    98   89   99 1   
    99   90   91 ar  
   100   90  100 1   
   101   91   92 1   
   102   92  101 1   
   103  102  103 1   
   104  102  110 1   
   105  103  104 1   
   106  103  106 1   
   107  103  111 1   
   108  104  105 2   
   109  104  121 1   
   110  106  107 1   
   111  106  108 1   
   112  106  112 1   
   113  107  109 1   
   114  107  113 1   
   115  107  114 1   
   116  108  115 1   
   117  108  116 1   
   118  108  117 1   
   119  109  118 1   
   120  109  119 1   
   121  109  120 1   
   122  121  122 1   
   123  121  127 1   
   124  122  123 1   
   125  122  125 1   
   126  122  128 1   
   127  123  124 2   
   128  123  132 1   
   129  125  126 1   
   130  125  129 1   
   131  125  130 1   
   132  126  131 1   
   133  132  133 1   
   134  132  137 1   
   135  133  134 1   
   136  133  136 1   
   137  133  138 1   
   138  134  135 2   
   139  134  142 1   
   140  136  139 1   
   141  136  140 1   
   142  136  141 1   
   143  142  143 1   
   144  142  147 1   
   145  143  144 1   
   146  143  146 1   
   147  143  148 1   
   148  144  145 2   
   149  144  152 1   
   150  146  149 1   
   151  146  150 1   
   152  146  151 1   
   153  152  153 1   
   154  152  161 1   
   155  153  154 1   
   156  153  156 1   
   157  153  162 1   
   158  154  155 2   
   159  154  167 1   
   160  156  157 1   
   161  156  163 1   
   162  156  164 1   
   163  157  158 1   
   164  157  165 1   
   165  157  166 1   
   166  158  159 1   
   167  158  160 1   
   168  167  168 1   
   169  167  172 1   
   170  168  169 1   
   171  168  170 1   
   172  168  171 1   
   173  174  175 1   
   174  174  176 1   
   175  177  178 1   
   176  177  179 1   
@<TRIPOS>SUBSTRUCTURE
     1 MOL         1 TEMP              0 ****  ****    0 ROOT
