@<TRIPOS>MOLECULE
MOL
  183   181     1     0     0
SMALL
resp


@<TRIPOS>ATOM
      1 C1          0.8510   -1.4580    6.5030 c3        1 MOL     -0.339557
      2 C2          1.2310   -1.7340    4.9930 c         1 MOL      0.811384
      3 O1          0.4460   -2.3370    4.3050 o         1 MOL     -0.586235
      4 H1          1.4570   -2.0920    7.1500 hc        1 MOL      0.075167
      5 H2          1.0400   -0.4120    6.7400 hc        1 MOL      0.075167
      6 H3         -0.2050   -1.6820    6.6590 hc        1 MOL      0.075167
      7 N1          2.3750   -1.2380    4.5270 n         1 MOL     -0.720965
      8 C3          2.9240   -1.4980    3.1700 c3        1 MOL      0.430644
      9 C4          3.1390   -2.9290    2.9740 c         1 MOL      0.372728
     10 O2          3.8300   -3.6580    3.7590 o         1 MOL     -0.589288
     11 C5          4.1870   -0.6160    2.9530 c3        1 MOL     -0.134002
     12 C6          4.8400   -0.5220    1.5570 c         1 MOL      0.659944
     13 O3          4.0050   -0.7860    0.6710 o         1 MOL     -0.606725
     14 O4          6.0390   -0.1610    1.4480 o         1 MOL     -0.606725
     15 H4          2.9700   -0.7640    5.1820 hn        1 MOL      0.316671
     16 H5          2.2570   -1.1480    2.3790 h1        1 MOL     -0.084341
     17 H6          4.9700   -1.0310    3.5940 hc        1 MOL      0.003365
     18 H7          4.0830    0.3950    3.3480 hc        1 MOL      0.003365
     19 N2          2.5890   -3.4200    1.8430 n         1 MOL     -0.028053
     20 C7          2.6690   -4.8640    1.4630 c3        1 MOL     -0.136468
     21 C8          3.3800   -5.1480    0.1710 c         1 MOL      0.339524
     22 O5          3.7000   -6.3150   -0.0480 o         1 MOL     -0.558939
     23 C9          1.2410   -5.4430    1.4520 c3        1 MOL      0.331650
     24 C10         0.4600   -5.3210    0.0940 c3        1 MOL     -0.103162
     25 C11         0.4150   -4.9220    2.5950 c3        1 MOL     -0.376942
     26 C12        -0.8640   -6.0700    0.0790 c3        1 MOL     -0.471568
     27 H8          1.9250   -2.8000    1.4110 hn        1 MOL      0.029253
     28 H9          3.1900   -5.4460    2.2340 h1        1 MOL      0.110764
     29 H10         1.4090   -6.5150    1.6040 hc        1 MOL     -0.051554
     30 H11         1.1500   -5.7350   -0.6350 hc        1 MOL      0.104313
     31 H12         0.4200   -4.2890   -0.2510 hc        1 MOL      0.104313
     32 H13        -0.4220   -5.6280    2.6150 hc        1 MOL      0.084062
     33 H14         0.9820   -4.8650    3.5230 hc        1 MOL      0.084062
     34 H15        -0.0330   -3.9570    2.3790 hc        1 MOL      0.084062
     35 H16        -0.6810   -7.1140    0.3170 hc        1 MOL      0.122003
     36 H17        -1.4630   -5.6120    0.8590 hc        1 MOL      0.122003
     37 H18        -1.3950   -5.8450   -0.8470 hc        1 MOL      0.122003
     38 N3          3.5930   -4.2030   -0.7790 n         1 MOL     -0.045591
     39 C13         4.3360   -4.3480   -2.0530 c3        1 MOL     -0.042955
     40 C14         5.7130   -3.5150   -2.1990 c         1 MOL      0.452087
     41 O6          6.4520   -3.6830   -3.1440 o         1 MOL     -0.489712
     42 C15         3.3370   -4.1460   -3.2440 c3        1 MOL     -0.178208
     43 C16         2.7320   -2.7570   -3.2910 c         1 MOL      0.745138
     44 O7          3.2950   -1.8540   -2.6980 o         1 MOL     -0.686683
     45 O8          1.6330   -2.6300   -3.8550 o         1 MOL     -0.686683
     46 H19         3.1970   -3.2980   -0.5860 hn        1 MOL      0.054610
     47 H20         4.7610   -5.3520   -1.9870 h1        1 MOL      0.074780
     48 H21         2.5560   -4.9010   -3.1250 hc        1 MOL      0.029948
     49 H22         3.9220   -4.3320   -4.1380 hc        1 MOL      0.029948
     50 N4          6.0110   -2.8360   -1.0900 n         1 MOL     -0.175148
     51 C17         7.3620   -2.3750   -0.8660 c3        1 MOL     -0.174616
     52 C18         7.7530   -1.0790   -1.5370 c         1 MOL      0.502683
     53 O9          8.7140   -1.0130   -2.3370 o         1 MOL     -0.574059
     54 H23         5.3280   -2.7200   -0.3530 hn        1 MOL      0.137855
     55 H24         8.0710   -3.1410   -1.1820 h1        1 MOL      0.081970
     56 H25         7.4410   -2.2270    0.2170 h1        1 MOL      0.081970
     57 N5          6.9510   -0.0380   -1.3630 n         1 MOL     -0.135465
     58 C19         7.2710    1.2890   -1.8500 c3        1 MOL     -0.000708
     59 C20         7.4830    2.4010   -0.8260 c         1 MOL      0.438652
     60 O10         7.9130    3.5230   -1.1690 o         1 MOL     -0.559880
     61 C21         6.2530    1.6180   -2.9600 c3        1 MOL     -0.029001
     62 C22         4.7660    1.7110   -2.5370 c         1 MOL      0.627390
     63 O11         3.8130    1.2880   -3.2290 o         1 MOL     -0.753318
     64 O12         4.5400    1.8160   -1.3080 o         1 MOL     -0.753318
     65 H26         6.2650   -0.1720   -0.6360 hn        1 MOL     -0.019412
     66 H27         8.2850    1.2360   -2.2500 h1        1 MOL      0.068785
     67 H28         6.2850    0.9200   -3.7950 hc        1 MOL      0.022902
     68 H29         6.5940    2.5280   -3.4500 hc        1 MOL      0.022902
     69 N6          7.2490    2.1450    0.4570 n         1 MOL     -0.226655
     70 C23         7.1910    3.1650    1.5050 c3        1 MOL     -0.251162
     71 C24         5.8910    3.9970    1.6520 c         1 MOL      0.639842
     72 O13         5.9120    4.9540    2.4100 o         1 MOL     -0.601163
     73 H30         6.9390    1.2030    0.6350 hn        1 MOL      0.230873
     74 H31         7.9480    3.9380    1.3870 h1        1 MOL      0.103924
     75 H32         7.4140    2.6520    2.4490 h1        1 MOL      0.103924
     76 N7          4.8130    3.6520    0.9710 n         1 MOL     -0.264108
     77 C25         3.5070    4.3180    1.2460 c3        1 MOL     -0.220164
     78 C26         2.2700    3.3570    1.1070 c         1 MOL      0.737587
     79 O14         2.2610    2.3290    0.4040 o         1 MOL     -0.717926
     80 C27         3.3370    5.5670    0.3400 c3        1 MOL      0.034095
     81 C28         3.5300    5.3950   -1.1990 c3        1 MOL     -0.070931
     82 C29         3.2110    6.6120   -2.0060 c         1 MOL      0.609553
     83 N8          2.6850    6.4300   -3.2190 n         1 MOL     -0.783299
     84 O15         3.3860    7.7410   -1.5670 o         1 MOL     -0.575695
     85 H33         4.8010    2.9350    0.2570 hn        1 MOL      0.279313
     86 H34         3.4740    4.7160    2.2520 h1        1 MOL      0.081613
     87 H35         4.1730    6.2320    0.5690 hc        1 MOL      0.018928
     88 H36         2.3610    6.0320    0.4750 hc        1 MOL      0.018928
     89 H37         2.8680    4.5820   -1.5270 hc        1 MOL      0.046453
     90 H38         4.5230    5.0080   -1.4130 hc        1 MOL      0.046453
     91 H39         2.6610    5.4770   -3.5580 hn        1 MOL      0.354957
     92 H40         2.6240    7.2490   -3.7970 hn        1 MOL      0.354957
     93 N9          1.2490    3.7270    1.8490 n         1 MOL     -0.473602
     94 C30         0.0140    2.8860    1.9490 c3        1 MOL      0.030733
     95 C31        -1.0570    3.2500    0.9300 c         1 MOL      0.506049
     96 O16        -1.4200    4.4090    0.7640 o         1 MOL     -0.625230
     97 C32        -0.6800    2.9530    3.3570 c3        1 MOL      0.343774
     98 C33        -1.4950    1.6760    3.6040 c3        1 MOL     -0.401776
     99 C34         0.3450    3.2040    4.5250 c3        1 MOL     -0.401776
    100 H41         1.2350    4.6060    2.3530 hn        1 MOL      0.298986
    101 H42         0.3240    1.8550    1.8000 h1        1 MOL      0.104921
    102 H43        -1.3280    3.8280    3.3120 hc        1 MOL     -0.045265
    103 H44        -2.4350    1.6760    3.0500 hc        1 MOL      0.084526
    104 H45        -0.8950    0.7730    3.4900 hc        1 MOL      0.084526
    105 H46        -1.8310    1.6760    4.6330 hc        1 MOL      0.084526
    106 H47         1.2190    2.5640    4.3570 hc        1 MOL      0.084526
    107 H48         0.6040    4.2490    4.6610 hc        1 MOL      0.084526
    108 H49        -0.2120    2.7890    5.3690 hc        1 MOL      0.084526
    109 N10        -1.6440    2.3490    0.1910 n         1 MOL     -0.152537
    110 C35        -2.7590    2.5200   -0.7510 c3        1 MOL      0.096180
    111 C36        -4.0590    1.9830   -0.1220 c         1 MOL      0.367210
    112 O17        -3.9590    1.2820    0.8720 o         1 MOL     -0.328916
    113 C37        -2.4100    1.6390   -2.0010 c3        1 MOL     -0.405806
    114 C38        -3.5050    1.7340   -3.0080 c         1 MOL      0.685718
    115 N11        -3.6400    2.8860   -3.6020 n         1 MOL     -0.742825
    116 O18        -4.3590    0.8300   -3.2230 o         1 MOL     -0.546974
    117 H50        -1.2830    1.4330    0.4300 hn        1 MOL      0.071161
    118 H51        -2.9830    3.5520   -1.0220 h1        1 MOL      0.072485
    119 H52        -2.3420    0.5660   -1.8360 hc        1 MOL      0.163640
    120 H53        -1.5050    1.8810   -2.5620 hc        1 MOL      0.163640
    121 H54        -3.0350    3.6830   -3.4310 hn        1 MOL      0.343931
    122 H55        -4.2970    2.8850   -4.3710 hn        1 MOL      0.343931
    123 N12        -5.2900    2.3060   -0.5440 n         1 MOL     -0.472556
    124 C39        -6.6620    1.8200   -0.0750 c3        1 MOL      0.121174
    125 C40        -6.8060    0.2800   -0.0650 c         1 MOL      0.767649
    126 O19        -7.2280   -0.2130    0.9420 o         1 MOL     -0.575263
    127 C41        -7.7030    2.4520   -0.9110 c3        1 MOL     -0.079706
    128 C42        -9.0930    2.1720   -0.5020 ca        1 MOL     -0.076894
    129 C43        -9.5800    2.7600    0.6720 ca        1 MOL     -0.098437
    130 C44        -9.9480    1.3310   -1.2750 ca        1 MOL     -0.098437
    131 C45       -10.8860    2.5570    1.0210 ca        1 MOL     -0.277161
    132 C46       -11.3500    1.0940   -0.9070 ca        1 MOL     -0.277161
    133 C47       -11.7840    1.7650    0.2860 ca        1 MOL      0.348422
    134 O20       -13.0960    1.6780    0.7290 oh        1 MOL     -0.534865
    135 H56        -5.4190    2.9590   -1.3030 hn        1 MOL      0.240093
    136 H57        -6.8640    2.0550    0.9650 h1        1 MOL      0.022434
    137 H58        -7.4500    2.0880   -1.9070 hc        1 MOL      0.051558
    138 H59        -7.6130    3.5340   -1.0160 hc        1 MOL      0.051558
    139 H60        -9.0000    3.4070    1.3100 ha        1 MOL      0.131003
    140 H61        -9.5890    0.9130   -2.2020 ha        1 MOL      0.131003
    141 H62       -11.2860    2.9950    1.9250 ha        1 MOL      0.148526
    142 H63       -12.0340    0.5150   -1.5050 ha        1 MOL      0.148526
    143 H64       -13.6450    1.3230    0.0200 ho        1 MOL      0.374320
    144 N13        -6.2610   -0.4330   -1.0510 n         1 MOL     -0.568818
    145 C48        -6.2630   -1.9090   -0.9680 c3        1 MOL     -0.161242
    146 C49        -5.3770   -2.5210    0.2070 c         1 MOL      0.359836
    147 O21        -5.6930   -3.5900    0.6230 o         1 MOL     -0.470624
    148 C50        -5.9030   -2.5650   -2.3190 c3        1 MOL      0.120517
    149 C51        -7.0060   -2.3190   -3.2900 c3        1 MOL     -0.031836
    150 C52        -6.6800   -3.0070   -4.5960 c         1 MOL      0.645378
    151 O22        -7.0290   -4.1850   -4.8030 o         1 MOL     -0.731378
    152 O23        -6.0570   -2.2760   -5.3710 o         1 MOL     -0.731378
    153 H65        -5.7500    0.0790   -1.7530 hn        1 MOL      0.332868
    154 H66        -7.2630   -2.2770   -0.7530 h1        1 MOL      0.138340
    155 H67        -5.8390   -3.6470   -2.1660 hc        1 MOL      0.016362
    156 H68        -4.9390   -2.2200   -2.6740 hc        1 MOL      0.016362
    157 H69        -7.1400   -1.2350   -3.3870 hc        1 MOL     -0.047429
    158 H70        -7.9290   -2.7250   -2.8790 hc        1 MOL     -0.047429
    159 N14        -4.3590   -1.7220    0.6940 n         1 MOL     -0.165461
    160 C53        -3.4340   -2.0990    1.7670 c3        1 MOL      0.071519
    161 C54        -3.9580   -1.5530    3.1180 c         1 MOL      0.356682
    162 O24        -3.9880   -2.3120    4.0950 o         1 MOL     -0.571469
    163 C55        -1.9760   -1.5580    1.5840 c3        1 MOL      0.063483
    164 C56        -1.4440   -1.8000    0.2080 c3        1 MOL     -0.193652
    165 C57        -0.0160   -1.2180   -0.0650 c         1 MOL      0.979959
    166 O25         0.9940   -1.8650   -0.3990 o         1 MOL     -0.803446
    167 O26         0.0360    0.0180   -0.2580 o         1 MOL     -0.803446
    168 H71        -4.0720   -0.8840    0.2030 hn        1 MOL      0.193479
    169 H72        -3.3680   -3.1800    1.7420 h1        1 MOL      0.058318
    170 H73        -1.3410   -2.0010    2.3490 hc        1 MOL      0.004591
    171 H74        -1.9300   -0.4730    1.6670 hc        1 MOL      0.004591
    172 H75        -2.0690   -1.2350   -0.4810 hc        1 MOL      0.026262
    173 H76        -1.4420   -2.8590   -0.0230 hc        1 MOL      0.026262
    174 N15        -4.6070   -0.4180    3.1140 n         1 MOL      0.039985
    175 C58        -5.3800    0.0050    4.2730 c3        1 MOL     -0.278839
    176 H77        -5.3380   -0.7690    5.0390 h1        1 MOL      0.089061
    177 H78        -4.9640    0.9310    4.6690 h1        1 MOL      0.089061
    178 H79        -6.4170    0.1680    3.9790 h1        1 MOL      0.089061
    179 H80        -4.5680    0.1180    2.2510 hn        1 MOL      0.055979
    180 Ca1         2.6090    0.1000   -1.1570 Ca        1 MOL      1.765631
    181 O27         1.2610    0.0970   -3.5380 oh        1 MOL     -0.827008
    182 H81         1.7770   -0.6500   -3.8210 ho        1 MOL      0.392516
    183 H82         1.3780    0.7470   -4.2270 ho        1 MOL      0.392516
@<TRIPOS>BOND
     1    1    2 1   
     2    1    4 1   
     3    1    5 1   
     4    1    6 1   
     5    2    3 2   
     6    2    7 1   
     7    7    8 1   
     8    7   15 1   
     9    8    9 1   
    10    8   11 1   
    11    8   16 1   
    12    9   10 2   
    13    9   19 1   
    14   11   12 1   
    15   11   17 1   
    16   11   18 1   
    17   12   13 1   
    18   12   14 1   
    19   19   20 1   
    20   19   27 1   
    21   20   21 1   
    22   20   23 1   
    23   20   28 1   
    24   21   22 2   
    25   21   38 1   
    26   23   24 1   
    27   23   25 1   
    28   23   29 1   
    29   24   26 1   
    30   24   30 1   
    31   24   31 1   
    32   25   32 1   
    33   25   33 1   
    34   25   34 1   
    35   26   35 1   
    36   26   36 1   
    37   26   37 1   
    38   38   39 1   
    39   38   46 1   
    40   39   40 1   
    41   39   42 1   
    42   39   47 1   
    43   40   41 2   
    44   40   50 1   
    45   42   43 1   
    46   42   48 1   
    47   42   49 1   
    48   43   44 1   
    49   43   45 1   
    50   50   51 1   
    51   50   54 1   
    52   51   52 1   
    53   51   55 1   
    54   51   56 1   
    55   52   53 2   
    56   52   57 1   
    57   57   58 1   
    58   57   65 1   
    59   58   59 1   
    60   58   61 1   
    61   58   66 1   
    62   59   60 2   
    63   59   69 1   
    64   61   62 1   
    65   61   67 1   
    66   61   68 1   
    67   62   63 1   
    68   62   64 1   
    69   69   70 1   
    70   69   73 1   
    71   70   71 1   
    72   70   74 1   
    73   70   75 1   
    74   71   72 2   
    75   71   76 1   
    76   76   77 1   
    77   76   85 1   
    78   77   78 1   
    79   77   80 1   
    80   77   86 1   
    81   78   79 2   
    82   78   93 1   
    83   80   81 1   
    84   80   87 1   
    85   80   88 1   
    86   81   82 1   
    87   81   89 1   
    88   81   90 1   
    89   82   83 1   
    90   82   84 2   
    91   83   91 1   
    92   83   92 1   
    93   93   94 1   
    94   93  100 1   
    95   94   95 1   
    96   94   97 1   
    97   94  101 1   
    98   95   96 2   
    99   95  109 1   
   100   97   98 1   
   101   97   99 1   
   102   97  102 1   
   103   98  103 1   
   104   98  104 1   
   105   98  105 1   
   106   99  106 1   
   107   99  107 1   
   108   99  108 1   
   109  109  110 1   
   110  109  117 1   
   111  110  111 1   
   112  110  113 1   
   113  110  118 1   
   114  111  112 2   
   115  111  123 1   
   116  113  114 1   
   117  113  119 1   
   118  113  120 1   
   119  114  115 1   
   120  114  116 2   
   121  115  121 1   
   122  115  122 1   
   123  123  124 1   
   124  123  135 1   
   125  124  125 1   
   126  124  127 1   
   127  124  136 1   
   128  125  126 2   
   129  125  144 1   
   130  127  128 1   
   131  127  137 1   
   132  127  138 1   
   133  128  129 ar  
   134  128  130 ar  
   135  129  131 ar  
   136  129  139 1   
   137  130  132 ar  
   138  130  140 1   
   139  131  133 ar  
   140  131  141 1   
   141  132  133 ar  
   142  132  142 1   
   143  133  134 1   
   144  134  143 1   
   145  144  145 1   
   146  144  153 1   
   147  145  146 1   
   148  145  148 1   
   149  145  154 1   
   150  146  147 2   
   151  146  159 1   
   152  148  149 1   
   153  148  155 1   
   154  148  156 1   
   155  149  150 1   
   156  149  157 1   
   157  149  158 1   
   158  150  151 1   
   159  150  152 1   
   160  159  160 1   
   161  159  168 1   
   162  160  161 1   
   163  160  163 1   
   164  160  169 1   
   165  161  162 2   
   166  161  174 1   
   167  163  164 1   
   168  163  170 1   
   169  163  171 1   
   170  164  165 1   
   171  164  172 1   
   172  164  173 1   
   173  165  166 1   
   174  165  167 1   
   175  174  175 1   
   176  174  179 1   
   177  175  176 1   
   178  175  177 1   
   179  175  178 1   
   180  181  182 1   
   181  181  183 1   
@<TRIPOS>SUBSTRUCTURE
     1 MOL         1 TEMP              0 ****  ****    0 ROOT
