@<TRIPOS>MOLECULE
MOL
  189   185     1     0     0
SMALL
resp


@<TRIPOS>ATOM
      1 C1         -0.1570    3.2520   -5.3500 c3        1 MOL     -0.367176
      2 C2          0.3540    3.0140   -3.8820 c         1 MOL      0.826937
      3 O1         -0.2420    3.4560   -2.9310 o         1 MOL     -0.677461
      4 H1         -1.2290    3.0650   -5.3960 hc        1 MOL      0.091653
      5 H2          0.0450    4.2820   -5.6430 hc        1 MOL      0.091653
      6 H3          0.3580    2.5720   -6.0290 hc        1 MOL      0.091653
      7 N1          1.4640    2.2940   -3.6740 n         1 MOL     -0.682403
      8 C3          1.9200    1.9160   -2.3210 c3        1 MOL      0.300809
      9 C4          2.5080    3.1760   -1.6570 c         1 MOL      0.426209
     10 O2          3.3470    3.8490   -2.2630 o         1 MOL     -0.552958
     11 C5          3.0460    0.8540   -2.5540 c3        1 MOL     -0.304821
     12 C6          3.6040    0.3920   -1.2350 c         1 MOL      0.711227
     13 O3          3.1290    0.7820   -0.1200 o         1 MOL     -0.639512
     14 O4          4.5280   -0.4460   -1.3170 o         1 MOL     -0.639512
     15 H4          1.9960    1.9380   -4.4450 hn        1 MOL      0.323695
     16 H5          1.1110    1.4650   -1.7580 h1        1 MOL     -0.027998
     17 H6          3.8440    1.4020   -3.0600 hc        1 MOL      0.089974
     18 H7          2.6310   -0.0000   -3.0830 hc        1 MOL      0.089974
     19 N2          2.1610    3.5010   -0.3660 n         1 MOL     -0.129622
     20 C7          2.5340    4.7680    0.2650 c3        1 MOL      0.149865
     21 C8          3.5580    4.7050    1.3760 c         1 MOL      0.367710
     22 O5          4.4780    5.5060    1.5180 o         1 MOL     -0.528783
     23 C9          1.3750    5.7490    0.6250 c3        1 MOL     -0.072194
     24 C10         0.5720    6.2940   -0.6490 c3        1 MOL      0.018414
     25 C11         1.3600    6.8910   -1.8410 c3        1 MOL     -0.017369
     26 C12         0.5890    7.9990   -2.5440 c3        1 MOL      0.019160
     27 N3         -0.5270    7.3760   -3.2600 n4        1 MOL     -0.276692
     28 H8          1.7940    2.7510    0.2040 hn        1 MOL      0.025372
     29 H9          3.1160    5.3530   -0.4450 h1        1 MOL      0.022346
     30 H10         1.7900    6.6230    1.1460 hc        1 MOL      0.015573
     31 H11         0.6960    5.2860    1.3430 hc        1 MOL      0.015573
     32 H12        -0.2310    6.9500   -0.3230 hc        1 MOL      0.012326
     33 H13         0.0150    5.4510   -1.0530 hc        1 MOL      0.012326
     34 H14         1.6570    6.1390   -2.5740 hc        1 MOL      0.047394
     35 H15         2.2700    7.3460   -1.4610 hc        1 MOL      0.047394
     36 H16         1.2020    8.5010   -3.2890 hx        1 MOL      0.067780
     37 H17         0.2810    8.7310   -1.8110 hx        1 MOL      0.067780
     38 H18        -0.2490    6.9010   -4.1070 hn        1 MOL      0.301890
     39 H19        -1.0500    6.7230   -2.6890 hn        1 MOL      0.301890
     40 H20        -1.1730    8.1510   -3.3920 hn        1 MOL      0.301890
     41 N4          3.3800    3.7160    2.2130 n         1 MOL     -0.275303
     42 C13         4.3840    3.2380    3.1770 c3        1 MOL      0.111128
     43 C14         5.5900    2.5280    2.5830 c         1 MOL      0.386639
     44 O6          6.7070    2.6170    3.1500 o         1 MOL     -0.534375
     45 C15         3.7680    2.5760    4.4310 c3        1 MOL     -0.454681
     46 C16         2.8990    1.2930    4.1840 c         1 MOL      0.875417
     47 O7          2.1150    0.8820    5.0520 o         1 MOL     -0.725116
     48 O8          2.9880    0.7780    3.0930 o         1 MOL     -0.725116
     49 H21         2.4670    3.2730    2.2080 hn        1 MOL      0.264669
     50 H22         4.7500    4.1820    3.5920 h1        1 MOL      0.078212
     51 H23         3.1120    3.3180    4.8990 hc        1 MOL      0.108525
     52 H24         4.6400    2.3300    5.0300 hc        1 MOL      0.108525
     53 N5          5.4610    1.8900    1.4040 n         1 MOL     -0.044852
     54 C17         6.5750    1.5240    0.5880 c3        1 MOL     -0.209544
     55 C18         7.1220    0.1520    0.9680 c         1 MOL      0.615277
     56 O9          8.3150   -0.0280    0.8860 o         1 MOL     -0.588339
     57 H25         4.5120    1.8960    1.0440 hn        1 MOL      0.124974
     58 H26         7.3390    2.2950    0.6630 h1        1 MOL      0.101670
     59 H27         6.3910    1.5330   -0.4880 h1        1 MOL      0.101670
     60 N6          6.2500   -0.8090    1.3510 n         1 MOL     -0.301612
     61 C19         6.6870   -2.2040    1.7100 c3        1 MOL     -0.036570
     62 C20         6.9150   -3.1020    0.5240 c         1 MOL      0.441597
     63 O10         7.3490   -4.2400    0.6310 o         1 MOL     -0.515346
     64 C21         5.7190   -2.7730    2.7670 c3        1 MOL     -0.202555
     65 C22         4.2000   -2.6220    2.4720 c         1 MOL      0.830275
     66 O11         3.7860   -2.6290    1.3080 o         1 MOL     -0.724423
     67 O12         3.4340   -2.4440    3.3900 o         1 MOL     -0.724423
     68 H28         5.2880   -0.5860    1.1420 hn        1 MOL      0.052204
     69 H29         7.6940   -2.1240    2.1180 h1        1 MOL      0.130145
     70 H30         5.9620   -2.3890    3.7670 hc        1 MOL      0.060172
     71 H31         5.8940   -3.8400    2.9140 hc        1 MOL      0.060172
     72 N7          6.5140   -2.5910   -0.6710 n         1 MOL     -0.247508
     73 C23         6.3340   -3.3950   -1.9130 c3        1 MOL     -0.186540
     74 C24         5.0470   -4.1730   -2.0880 c         1 MOL      0.568891
     75 O13         5.0250   -5.2170   -2.7700 o         1 MOL     -0.573016
     76 H32         6.1300   -1.6650   -0.7460 hn        1 MOL      0.246260
     77 H33         7.0860   -4.1590   -2.1140 h1        1 MOL      0.088431
     78 H34         6.2110   -2.6410   -2.6950 h1        1 MOL      0.088431
     79 N8          3.9900   -3.6840   -1.4510 n         1 MOL     -0.127651
     80 C25         2.6610   -4.3340   -1.6310 c3        1 MOL     -0.588316
     81 C26         1.5580   -3.2110   -1.6300 c         1 MOL      0.909102
     82 O14         1.6720   -2.2750   -0.8340 o         1 MOL     -0.738468
     83 C27         2.3210   -5.4180   -0.6280 c3        1 MOL      0.628793
     84 C28         3.1810   -6.6430   -0.8100 c3        1 MOL     -0.598993
     85 O15         2.4440   -4.8870    0.6300 oh        1 MOL     -0.623547
     86 H35         4.1120   -2.8220   -0.9350 hn        1 MOL      0.206474
     87 H36         2.6590   -4.8500   -2.5940 h1        1 MOL      0.144157
     88 H37         1.3210   -5.8170   -0.7950 h1        1 MOL     -0.015576
     89 H38         3.1750   -4.2700    0.6770 ho        1 MOL      0.380447
     90 H39         2.8090   -7.4820   -0.2070 hc        1 MOL      0.157038
     91 H40         3.3180   -6.8840   -1.8590 hc        1 MOL      0.157038
     92 H41         4.1950   -6.4010   -0.5020 hc        1 MOL      0.157038
     93 N9          0.4380   -3.4670   -2.3800 n         1 MOL     -0.621517
     94 C29        -0.7610   -2.5610   -2.3890 c3        1 MOL      0.077292
     95 C30        -1.9870   -3.1280   -1.5650 c         1 MOL      0.414249
     96 O16        -2.4660   -4.2430   -1.8380 o         1 MOL     -0.536246
     97 C31        -1.0700   -2.2890   -3.9170 c3        1 MOL      0.178270
     98 C32         0.1740   -1.7260   -4.6720 c3        1 MOL      0.116853
     99 C33        -2.2560   -1.3090   -4.0510 c3        1 MOL     -0.194326
    100 C34        -0.0420   -2.0280   -6.1720 c3        1 MOL     -0.057810
    101 H42         0.4570   -4.2430   -3.0230 hn        1 MOL      0.322725
    102 H43        -0.5750   -1.5720   -1.9690 h1        1 MOL      0.070638
    103 H44        -1.3130   -3.2480   -4.3650 hc        1 MOL     -0.001560
    104 H45         1.0490   -2.3050   -4.3570 hc        1 MOL     -0.038256
    105 H46         0.2500   -0.6370   -4.5860 hc        1 MOL     -0.038256
    106 H47        -3.0440   -1.6340   -3.3660 hc        1 MOL      0.017608
    107 H48        -2.0060   -0.3000   -3.7350 hc        1 MOL      0.017608
    108 H49        -2.6510   -1.4520   -5.0660 hc        1 MOL      0.017608
    109 H50        -0.3410   -3.0560   -6.3580 hc        1 MOL      0.005111
    110 H51        -0.7780   -1.3870   -6.6590 hc        1 MOL      0.005111
    111 H52         0.9350   -1.8570   -6.6400 hc        1 MOL      0.005111
    112 N10        -2.4290   -2.3410   -0.5740 n         1 MOL     -0.095946
    113 C35        -3.6820   -2.7080    0.1870 c3        1 MOL     -0.043540
    114 C36        -4.9540   -2.3070   -0.4860 c         1 MOL      0.365938
    115 O17        -4.9380   -1.4150   -1.3650 o         1 MOL     -0.353367
    116 C37        -3.6050   -2.1450    1.6340 c3        1 MOL      0.208971
    117 C38        -2.2940   -2.5570    2.3010 c3        1 MOL     -0.409029
    118 O18        -3.6220   -0.8000    1.6640 oh        1 MOL     -0.523942
    119 H53        -1.9310   -1.4790   -0.3800 hn        1 MOL      0.105816
    120 H54        -3.7980   -3.7940    0.2670 h1        1 MOL      0.060779
    121 H55        -4.3970   -2.6560    2.1820 h1        1 MOL      0.020927
    122 H56        -2.7260   -0.5170    1.4710 ho        1 MOL      0.446875
    123 H57        -2.1590   -3.6350    2.2900 hc        1 MOL      0.105716
    124 H58        -1.4010   -2.0620    1.8880 hc        1 MOL      0.105716
    125 H59        -2.1980   -2.3320    3.3600 hc        1 MOL      0.105716
    126 N11        -6.1090   -2.7830    0.0250 n         1 MOL     -0.271005
    127 C39        -7.4570   -2.2580   -0.4130 c3        1 MOL     -0.194893
    128 C40        -7.5260   -0.7070   -0.2170 c         1 MOL      0.307225
    129 O19        -8.0750   -0.0840   -1.1080 o         1 MOL     -0.449145
    130 C41        -8.6600   -3.0270    0.1680 c3        1 MOL      0.319940
    131 C42        -8.6780   -4.4390   -0.2950 c3        1 MOL     -0.262461
    132 O20        -8.5010   -3.1200    1.5360 oh        1 MOL     -0.628906
    133 H60        -6.1010   -3.4460    0.7890 hn        1 MOL      0.282559
    134 H61        -7.4530   -2.4140   -1.4910 h1        1 MOL      0.155009
    135 H62        -9.6320   -2.6330   -0.1180 h1        1 MOL      0.040483
    136 H63        -9.4020   -3.0260    1.8470 ho        1 MOL      0.405060
    137 H64        -9.3180   -5.0040    0.3760 hc        1 MOL      0.075457
    138 H65        -9.1040   -4.5550   -1.2920 hc        1 MOL      0.075457
    139 H66        -7.6730   -4.8500   -0.4110 hc        1 MOL      0.075457
    140 N12        -6.9560   -0.1710    0.8480 n         1 MOL     -0.202422
    141 C43        -6.9500    1.2900    1.1240 c3        1 MOL      0.006283
    142 C44        -5.9180    2.0000    0.2270 c         1 MOL      0.348101
    143 O21        -6.2310    3.0180   -0.3450 o         1 MOL     -0.500446
    144 C45        -6.6550    1.4760    2.6510 c3        1 MOL     -0.128563
    145 C46        -7.8670    1.1960    3.5390 c3        1 MOL      0.322640
    146 C47        -7.6540    1.3790    5.0330 c3        1 MOL     -0.232308
    147 C48        -6.7880    0.2800    5.5800 c3        1 MOL      0.088446
    148 N13        -6.5630    0.5880    7.0450 n4        1 MOL     -0.294814
    149 H67        -6.7060   -0.7900    1.6040 hn        1 MOL      0.229793
    150 H68        -7.9090    1.7860    1.0030 h1        1 MOL      0.095119
    151 H69        -6.2530    2.4700    2.8630 hc        1 MOL      0.032825
    152 H70        -5.8890    0.7450    2.9080 hc        1 MOL      0.032825
    153 H71        -8.3380    0.2290    3.3700 hc        1 MOL     -0.050075
    154 H72        -8.6470    1.9240    3.2880 hc        1 MOL     -0.050075
    155 H73        -8.6480    1.3630    5.4770 hc        1 MOL      0.076102
    156 H74        -7.1820    2.3500    5.1880 hc        1 MOL      0.076102
    157 H75        -5.8060    0.1910    5.1180 hx        1 MOL      0.071464
    158 H76        -7.3660   -0.6350    5.4280 hx        1 MOL      0.071464
    159 H77        -6.1850    1.4930    7.2360 hn        1 MOL      0.309465
    160 H78        -7.4450    0.6800    7.5290 hn        1 MOL      0.309465
    161 H79        -5.9800   -0.0730    7.5430 hn        1 MOL      0.309465
    162 N14        -4.7910    1.4150   -0.0940 n         1 MOL     -0.061836
    163 C49        -3.7780    2.0740   -0.9710 c3        1 MOL     -0.075509
    164 C50        -4.2320    2.2170   -2.3700 c         1 MOL      0.454490
    165 O22        -4.0670    3.2820   -2.9190 o         1 MOL     -0.537722
    166 C51        -2.4970    1.4240   -0.8610 c3        1 MOL      0.086861
    167 C52        -1.7380    1.8020    0.3970 c3        1 MOL     -0.285173
    168 C53        -0.4550    1.0040    0.5830 c         1 MOL      0.591392
    169 O23         0.5590    1.6070    1.0720 o         1 MOL     -0.590329
    170 O24        -0.5080   -0.2440    0.4080 o         1 MOL     -0.590329
    171 H80        -4.6590    0.4910    0.3040 hn        1 MOL      0.001192
    172 H81        -3.6000    3.0870   -0.6190 h1        1 MOL      0.082206
    173 H82        -1.9090    1.8480   -1.6850 hc        1 MOL      0.053955
    174 H83        -2.6440    0.3520   -0.9810 hc        1 MOL      0.053955
    175 H84        -2.3000    1.5120    1.2780 hc        1 MOL      0.061585
    176 H85        -1.4360    2.8500    0.3150 hc        1 MOL      0.061585
    177 N15        -4.9260    1.1210   -2.9190 n         1 MOL     -0.117043
    178 C54        -5.5460    1.0180   -4.2640 c3        1 MOL     -0.274905
    179 H86        -6.5990    0.7550   -4.1600 h1        1 MOL      0.104985
    180 H87        -5.4600    1.9740   -4.7790 h1        1 MOL      0.104985
    181 H88        -5.0360    0.2470   -4.8420 h1        1 MOL      0.104985
    182 H89        -4.8580    0.2150   -2.4710 hn        1 MOL      0.166614
    183 Ca1         1.7770   -0.7830    1.3590 Ca        1 MOL      1.738987
    184 O25         0.4210   -0.4090    3.6620 oh        1 MOL     -0.917139
    185 H90        -0.1690   -0.9100    4.2390 ho        1 MOL      0.410986
    186 H91         1.1240   -0.1260    4.2460 ho        1 MOL      0.410986
    187 O26         0.6800   -3.2950    1.6930 oh        1 MOL     -0.917139
    188 H92         0.1830   -3.8140    2.3210 ho        1 MOL      0.410986
    189 H93         1.3300   -3.8950    1.3480 ho        1 MOL      0.410986
@<TRIPOS>BOND
     1    1    2 1   
     2    1    4 1   
     3    1    5 1   
     4    1    6 1   
     5    2    3 2   
     6    2    7 1   
     7    7    8 1   
     8    7   15 1   
     9    8    9 1   
    10    8   11 1   
    11    8   16 1   
    12    9   10 2   
    13    9   19 1   
    14   11   12 1   
    15   11   17 1   
    16   11   18 1   
    17   12   13 1   
    18   12   14 1   
    19   19   20 1   
    20   19   28 1   
    21   20   21 1   
    22   20   23 1   
    23   20   29 1   
    24   21   22 2   
    25   21   41 1   
    26   23   24 1   
    27   23   30 1   
    28   23   31 1   
    29   24   25 1   
    30   24   32 1   
    31   24   33 1   
    32   25   26 1   
    33   25   34 1   
    34   25   35 1   
    35   26   27 1   
    36   26   36 1   
    37   26   37 1   
    38   27   38 1   
    39   27   39 1   
    40   27   40 1   
    41   41   42 1   
    42   41   49 1   
    43   42   43 1   
    44   42   45 1   
    45   42   50 1   
    46   43   44 2   
    47   43   53 1   
    48   45   46 1   
    49   45   51 1   
    50   45   52 1   
    51   46   47 1   
    52   46   48 1   
    53   53   54 1   
    54   53   57 1   
    55   54   55 1   
    56   54   58 1   
    57   54   59 1   
    58   55   56 2   
    59   55   60 1   
    60   60   61 1   
    61   60   68 1   
    62   61   62 1   
    63   61   64 1   
    64   61   69 1   
    65   62   63 2   
    66   62   72 1   
    67   64   65 1   
    68   64   70 1   
    69   64   71 1   
    70   65   66 1   
    71   65   67 1   
    72   72   73 1   
    73   72   76 1   
    74   73   74 1   
    75   73   77 1   
    76   73   78 1   
    77   74   75 2   
    78   74   79 1   
    79   79   80 1   
    80   79   86 1   
    81   80   81 1   
    82   80   83 1   
    83   80   87 1   
    84   81   82 2   
    85   81   93 1   
    86   83   84 1   
    87   83   85 1   
    88   83   88 1   
    89   84   90 1   
    90   84   91 1   
    91   84   92 1   
    92   85   89 1   
    93   93   94 1   
    94   93  101 1   
    95   94   95 1   
    96   94   97 1   
    97   94  102 1   
    98   95   96 2   
    99   95  112 1   
   100   97   98 1   
   101   97   99 1   
   102   97  103 1   
   103   98  100 1   
   104   98  104 1   
   105   98  105 1   
   106   99  106 1   
   107   99  107 1   
   108   99  108 1   
   109  100  109 1   
   110  100  110 1   
   111  100  111 1   
   112  112  113 1   
   113  112  119 1   
   114  113  114 1   
   115  113  116 1   
   116  113  120 1   
   117  114  115 2   
   118  114  126 1   
   119  116  117 1   
   120  116  118 1   
   121  116  121 1   
   122  117  123 1   
   123  117  124 1   
   124  117  125 1   
   125  118  122 1   
   126  126  127 1   
   127  126  133 1   
   128  127  128 1   
   129  127  130 1   
   130  127  134 1   
   131  128  129 2   
   132  128  140 1   
   133  130  131 1   
   134  130  132 1   
   135  130  135 1   
   136  131  137 1   
   137  131  138 1   
   138  131  139 1   
   139  132  136 1   
   140  140  141 1   
   141  140  149 1   
   142  141  142 1   
   143  141  144 1   
   144  141  150 1   
   145  142  143 2   
   146  142  162 1   
   147  144  145 1   
   148  144  151 1   
   149  144  152 1   
   150  145  146 1   
   151  145  153 1   
   152  145  154 1   
   153  146  147 1   
   154  146  155 1   
   155  146  156 1   
   156  147  148 1   
   157  147  157 1   
   158  147  158 1   
   159  148  159 1   
   160  148  160 1   
   161  148  161 1   
   162  162  163 1   
   163  162  171 1   
   164  163  164 1   
   165  163  166 1   
   166  163  172 1   
   167  164  165 2   
   168  164  177 1   
   169  166  167 1   
   170  166  173 1   
   171  166  174 1   
   172  167  168 1   
   173  167  175 1   
   174  167  176 1   
   175  168  169 1   
   176  168  170 1   
   177  177  178 1   
   178  177  182 1   
   179  178  179 1   
   180  178  180 1   
   181  178  181 1   
   182  184  185 1   
   183  184  186 1   
   184  187  188 1   
   185  187  189 1   
@<TRIPOS>SUBSTRUCTURE
     1 MOL         1 TEMP              0 ****  ****    0 ROOT
